
  xtb     06082022593D
xtb: 6.2.3 (830e466)
 37 38  0     0  0            999 V2000
    8.2877    4.7150    9.7668 C   0  0  0  0  0  0  0  0  0  0  0  0
    9.6536    4.6507    9.1560 C   0  0  0  0  0  0  0  0  0  0  0  0
   10.1829    3.4333    8.7502 C   0  0  0  0  0  0  0  0  0  0  0  0
   11.4502    3.3467    8.2015 C   0  0  0  0  0  0  0  0  0  0  0  0
   12.2111    4.4911    8.0497 C   0  0  0  0  0  0  0  0  0  0  0  0
   11.6932    5.7115    8.4459 C   0  0  0  0  0  0  0  0  0  0  0  0
   10.4238    5.8067    8.9994 C   0  0  0  0  0  0  0  0  0  0  0  0
    9.8915    7.1496    9.4240 C   0  0  0  0  0  0  0  0  0  0  0  0
    8.7121    7.5292    8.6578 N   0  0  0  0  0  0  0  0  0  0  0  0
    8.9950    7.6732    7.2433 C   0  0  0  0  0  0  0  0  0  0  0  0
    7.6862    7.9051    6.4843 C   0  0  0  0  0  0  0  0  0  0  0  0
    7.0366    9.0871    6.9994 N   0  0  0  0  0  0  0  0  0  0  0  0
    6.8333   10.2590    6.3712 C   0  0  0  0  0  0  0  0  0  0  0  0
    6.3924   11.2412    6.9374 O   0  0  0  0  0  0  0  0  0  0  0  0
    7.1645   10.3294    4.8837 C   0  0  0  0  0  0  0  0  0  0  0  0
    6.1257    9.2290    3.9400 Cl  0  0  0  0  0  0  0  0  0  0  0  0
    6.7820    8.9884    8.4224 C   0  0  0  0  0  0  0  0  0  0  0  0
    8.0925    8.7385    9.1660 C   0  0  0  0  0  0  0  0  0  0  0  0
    8.3668    4.8981   10.8388 H   0  0  0  0  0  0  0  0  0  0  0  0
    7.7562    3.7785    9.6194 H   0  0  0  0  0  0  0  0  0  0  0  0
    7.7182    5.5307    9.3291 H   0  0  0  0  0  0  0  0  0  0  0  0
    9.5915    2.5362    8.8689 H   0  0  0  0  0  0  0  0  0  0  0  0
   11.8418    2.3881    7.8946 H   0  0  0  0  0  0  0  0  0  0  0  0
   13.2020    4.4369    7.6240 H   0  0  0  0  0  0  0  0  0  0  0  0
   12.2865    6.6076    8.3266 H   0  0  0  0  0  0  0  0  0  0  0  0
   10.6891    7.9080    9.3298 H   0  0  0  0  0  0  0  0  0  0  0  0
    9.5933    7.1051   10.4762 H   0  0  0  0  0  0  0  0  0  0  0  0
    9.4651    6.7546    6.8863 H   0  0  0  0  0  0  0  0  0  0  0  0
    9.6837    8.5181    7.0512 H   0  0  0  0  0  0  0  0  0  0  0  0
    7.0242    7.0487    6.6537 H   0  0  0  0  0  0  0  0  0  0  0  0
    7.8779    7.9859    5.4178 H   0  0  0  0  0  0  0  0  0  0  0  0
    8.2034   10.0723    4.6774 H   0  0  0  0  0  0  0  0  0  0  0  0
    6.9561   11.3430    4.5432 H   0  0  0  0  0  0  0  0  0  0  0  0
    6.0954    8.1546    8.5990 H   0  0  0  0  0  0  0  0  0  0  0  0
    6.3230    9.9211    8.7514 H   0  0  0  0  0  0  0  0  0  0  0  0
    8.7514    9.6175    9.0444 H   0  0  0  0  0  0  0  0  0  0  0  0
    7.8852    8.6081   10.2302 H   0  0  0  0  0  0  0  0  0  0  0  0
  1  2  1  0  0  0  0
  1 19  1  0  0  0  0
  1 20  1  0  0  0  0
  1 21  1  0  0  0  0
  2  3  1  0  0  0  0
  2  7  1  0  0  0  0
  3  4  1  0  0  0  0
  3 22  1  0  0  0  0
  4  5  1  0  0  0  0
  4 23  1  0  0  0  0
  5  6  1  0  0  0  0
  5 24  1  0  0  0  0
  6  7  1  0  0  0  0
  6 25  1  0  0  0  0
  7  8  1  0  0  0  0
  8  9  1  0  0  0  0
  8 26  1  0  0  0  0
  8 27  1  0  0  0  0
  9 10  1  0  0  0  0
  9 18  1  0  0  0  0
 10 11  1  0  0  0  0
 10 28  1  0  0  0  0
 10 29  1  0  0  0  0
 11 12  1  0  0  0  0
 11 30  1  0  0  0  0
 11 31  1  0  0  0  0
 12 13  1  0  0  0  0
 12 17  1  0  0  0  0
 13 14  1  0  0  0  0
 13 15  1  0  0  0  0
 15 16  1  0  0  0  0
 15 32  1  0  0  0  0
 15 33  1  0  0  0  0
 17 18  1  0  0  0  0
 17 34  1  0  0  0  0
 17 35  1  0  0  0  0
 18 36  1  0  0  0  0
 18 37  1  0  0  0  0
M  END
>  <name>


>  <Energy>
97.2924

> <total energy / Eh>
    -54.159737961703

> <gradient norm / Eh/a0>
      0.000828664135

$$$$
