
  xtb     06082022513D
xtb: 6.2.3 (830e466)
 34 35  0     0  0            999 V2000
   10.6709    7.0847    8.0959 O   0  0  0  0  0  0  0  0  0  0  0  0
   10.3416    8.2550    8.0485 C   0  0  0  0  0  0  0  0  0  0  0  0
   10.9735    9.2527    9.0108 C   0  0  0  0  0  0  0  0  0  0  0  0
    9.7964   10.0013   10.1191 Cl  0  0  0  0  0  0  0  0  0  0  0  0
    9.4957    8.7263    7.1118 N   0  0  0  0  0  0  0  0  0  0  0  0
    8.9022   10.0397    7.0514 C   0  0  0  0  0  0  0  0  0  0  0  0
    7.4279    9.9513    7.4881 C   0  0  0  0  0  0  0  0  0  0  0  0
    6.8388    8.7052    7.0528 N   0  0  0  0  0  0  0  0  0  0  0  0
    6.1129    7.7174    8.1778 S   0  0  0  0  0  0  0  0  0  0  0  0
    5.4060    6.7207    7.4336 O   0  0  0  0  0  0  0  0  0  0  0  0
    5.4037    8.5797    9.0717 O   0  0  0  0  0  0  0  0  0  0  0  0
    7.4137    6.8999    9.1148 C   0  0  0  0  0  0  0  0  0  0  0  0
    7.8495    7.4641   10.2973 C   0  0  0  0  0  0  0  0  0  0  0  0
    8.8571    6.8401   11.0131 C   0  0  0  0  0  0  0  0  0  0  0  0
    9.4032    5.6639   10.5304 C   0  0  0  0  0  0  0  0  0  0  0  0
   10.3784    5.0711   11.2298 F   0  0  0  0  0  0  0  0  0  0  0  0
    8.9436    5.0784    9.3515 C   0  0  0  0  0  0  0  0  0  0  0  0
    9.6175    3.6078    8.7909 Cl  0  0  0  0  0  0  0  0  0  0  0  0
    7.9318    5.7100    8.6433 C   0  0  0  0  0  0  0  0  0  0  0  0
    7.4494    8.0948    5.9037 C   0  0  0  0  0  0  0  0  0  0  0  0
    8.9416    7.7943    6.1405 C   0  0  0  0  0  0  0  0  0  0  0  0
   11.4806   10.0544    8.4724 H   0  0  0  0  0  0  0  0  0  0  0  0
   11.6898    8.7059    9.6241 H   0  0  0  0  0  0  0  0  0  0  0  0
    8.9620   10.3850    6.0139 H   0  0  0  0  0  0  0  0  0  0  0  0
    9.4324   10.7485    7.6817 H   0  0  0  0  0  0  0  0  0  0  0  0
    6.8660   10.7909    7.0616 H   0  0  0  0  0  0  0  0  0  0  0  0
    7.3339    9.9976    8.5734 H   0  0  0  0  0  0  0  0  0  0  0  0
    7.3828    8.3679   10.6537 H   0  0  0  0  0  0  0  0  0  0  0  0
    9.2284    7.2516   11.9385 H   0  0  0  0  0  0  0  0  0  0  0  0
    7.5309    5.2730    7.7427 H   0  0  0  0  0  0  0  0  0  0  0  0
    7.3241    8.7701    5.0508 H   0  0  0  0  0  0  0  0  0  0  0  0
    6.8929    7.1803    5.7020 H   0  0  0  0  0  0  0  0  0  0  0  0
    9.0975    6.7889    6.5345 H   0  0  0  0  0  0  0  0  0  0  0  0
    9.4965    7.8852    5.1993 H   0  0  0  0  0  0  0  0  0  0  0  0
  1  2  1  0  0  0  0
  2  3  1  0  0  0  0
  2  5  1  0  0  0  0
  3  4  1  0  0  0  0
  3 22  1  0  0  0  0
  3 23  1  0  0  0  0
  5  6  1  0  0  0  0
  5 21  1  0  0  0  0
  6  7  1  0  0  0  0
  6 24  1  0  0  0  0
  6 25  1  0  0  0  0
  7  8  1  0  0  0  0
  7 26  1  0  0  0  0
  7 27  1  0  0  0  0
  8  9  1  0  0  0  0
  8 20  1  0  0  0  0
  9 10  1  0  0  0  0
  9 11  1  0  0  0  0
  9 12  1  0  0  0  0
 12 13  1  0  0  0  0
 12 19  1  0  0  0  0
 13 14  1  0  0  0  0
 13 28  1  0  0  0  0
 14 15  1  0  0  0  0
 14 29  1  0  0  0  0
 15 16  1  0  0  0  0
 15 17  1  0  0  0  0
 17 18  1  0  0  0  0
 17 19  1  0  0  0  0
 19 30  1  0  0  0  0
 20 21  1  0  0  0  0
 20 31  1  0  0  0  0
 20 32  1  0  0  0  0
 21 33  1  0  0  0  0
 21 34  1  0  0  0  0
M  END
>  <name>


>  <Energy>
39.1334

> <total energy / Eh>
    -67.477369870867

> <gradient norm / Eh/a0>
      0.000251667252

$$$$
