
  xtb     06082023013D
xtb: 6.2.3 (830e466)
 41 42  0     0  0            999 V2000
    5.9113   10.1210    3.2259 C   0  0  0  0  0  0  0  0  0  0  0  0
    7.3876    9.9625    3.5753 C   0  0  0  0  0  0  0  0  0  0  0  0
    7.7369   10.6461    4.7666 O   0  0  0  0  0  0  0  0  0  0  0  0
    7.3965   10.1417    5.9713 C   0  0  0  0  0  0  0  0  0  0  0  0
    6.8103    8.8937    6.1939 C   0  0  0  0  0  0  0  0  0  0  0  0
    6.5241    8.4870    7.4847 C   0  0  0  0  0  0  0  0  0  0  0  0
    6.8124    9.3166    8.5490 C   0  0  0  0  0  0  0  0  0  0  0  0
    6.4032    8.7727   10.1925 S   0  0  0  0  0  0  0  0  0  0  0  0
    6.8843    7.4419   10.4206 O   0  0  0  0  0  0  0  0  0  0  0  0
    6.7916    9.7813   11.1422 O   0  0  0  0  0  0  0  0  0  0  0  0
    4.7174    8.6322   10.0670 N   0  0  0  0  0  0  0  0  0  0  0  0
    4.0377    9.8940    9.8225 C   0  0  0  0  0  0  0  0  0  0  0  0
    3.2717   10.3600   11.0676 C   0  0  0  0  0  0  0  0  0  0  0  0
    4.0662   10.0745   12.2434 N   0  0  0  0  0  0  0  0  0  0  0  0
    4.7638   11.1025   12.7975 C   0  0  0  0  0  0  0  0  0  0  0  0
    4.6047   12.2470   12.4381 O   0  0  0  0  0  0  0  0  0  0  0  0
    5.7118   10.7136   13.9215 C   0  0  0  0  0  0  0  0  0  0  0  0
    6.1856   12.1552   14.8337 Cl  0  0  0  0  0  0  0  0  0  0  0  0
    4.2899    8.6622   12.4893 C   0  0  0  0  0  0  0  0  0  0  0  0
    4.1589    7.8793   11.1688 C   0  0  0  0  0  0  0  0  0  0  0  0
    7.3991   10.5545    8.3485 C   0  0  0  0  0  0  0  0  0  0  0  0
    7.6913   10.9646    7.0664 C   0  0  0  0  0  0  0  0  0  0  0  0
    5.7060    9.6353    2.2762 H   0  0  0  0  0  0  0  0  0  0  0  0
    5.6653   11.1765    3.1426 H   0  0  0  0  0  0  0  0  0  0  0  0
    5.2784    9.6808    3.9925 H   0  0  0  0  0  0  0  0  0  0  0  0
    8.0038   10.4356    2.8063 H   0  0  0  0  0  0  0  0  0  0  0  0
    7.6674    8.9046    3.6388 H   0  0  0  0  0  0  0  0  0  0  0  0
    6.5806    8.2308    5.3754 H   0  0  0  0  0  0  0  0  0  0  0  0
    6.0788    7.5250    7.6803 H   0  0  0  0  0  0  0  0  0  0  0  0
    3.3553    9.7712    8.9735 H   0  0  0  0  0  0  0  0  0  0  0  0
    4.7971   10.6325    9.5584 H   0  0  0  0  0  0  0  0  0  0  0  0
    2.3112    9.8442   11.1538 H   0  0  0  0  0  0  0  0  0  0  0  0
    3.1031   11.4369   11.0318 H   0  0  0  0  0  0  0  0  0  0  0  0
    6.6152   10.2901   13.4772 H   0  0  0  0  0  0  0  0  0  0  0  0
    5.2539   10.0187   14.6243 H   0  0  0  0  0  0  0  0  0  0  0  0
    3.5633    8.2882   13.2234 H   0  0  0  0  0  0  0  0  0  0  0  0
    5.2985    8.5111   12.8737 H   0  0  0  0  0  0  0  0  0  0  0  0
    4.7227    6.9486   11.2329 H   0  0  0  0  0  0  0  0  0  0  0  0
    3.1165    7.6499   10.9347 H   0  0  0  0  0  0  0  0  0  0  0  0
    7.6173   11.1740    9.2041 H   0  0  0  0  0  0  0  0  0  0  0  0
    8.1508   11.9209    6.8755 H   0  0  0  0  0  0  0  0  0  0  0  0
  1  2  1  0  0  0  0
  1 23  1  0  0  0  0
  1 24  1  0  0  0  0
  1 25  1  0  0  0  0
  2  3  1  0  0  0  0
  2 26  1  0  0  0  0
  2 27  1  0  0  0  0
  3  4  1  0  0  0  0
  4  5  1  0  0  0  0
  4 22  1  0  0  0  0
  5  6  1  0  0  0  0
  5 28  1  0  0  0  0
  6  7  1  0  0  0  0
  6 29  1  0  0  0  0
  7  8  1  0  0  0  0
  7 21  1  0  0  0  0
  8  9  1  0  0  0  0
  8 10  1  0  0  0  0
  8 11  1  0  0  0  0
 11 12  1  0  0  0  0
 11 20  1  0  0  0  0
 12 13  1  0  0  0  0
 12 30  1  0  0  0  0
 12 31  1  0  0  0  0
 13 14  1  0  0  0  0
 13 32  1  0  0  0  0
 13 33  1  0  0  0  0
 14 15  1  0  0  0  0
 14 19  1  0  0  0  0
 15 16  1  0  0  0  0
 15 17  1  0  0  0  0
 17 18  1  0  0  0  0
 17 34  1  0  0  0  0
 17 35  1  0  0  0  0
 19 20  1  0  0  0  0
 19 36  1  0  0  0  0
 19 37  1  0  0  0  0
 20 38  1  0  0  0  0
 20 39  1  0  0  0  0
 21 22  1  0  0  0  0
 21 40  1  0  0  0  0
 22 41  1  0  0  0  0
M  END
>  <name>


>  <Energy>
65.3959

> <total energy / Eh>
    -69.600195877123

> <gradient norm / Eh/a0>
      0.000192226787

$$$$
