
 OpenBabel06082022513D

 38 39  0  0  0  0  0  0  0  0999 V2000
   11.9584    7.6508    9.3374 C   0  0  0  0  0  0  0  0  0  0  0  0
   11.7938    7.7531    7.9136 O   0  0  0  0  0  0  0  0  0  0  0  0
   10.5223    7.4197    7.5345 C   0  0  0  0  0  0  0  0  0  0  0  0
    9.7447    8.3773    6.8859 C   0  0  0  0  0  0  0  0  0  0  0  0
    8.3659    8.1672    6.7452 C   0  0  0  0  0  0  0  0  0  0  0  0
    7.7980    6.9815    7.2221 C   0  0  0  0  0  0  0  0  0  0  0  0
    6.0199    6.8095    7.3542 S   0  0  0  0  0  0  0  0  0  0  0  0
    5.6869    5.6038    6.6229 O   0  0  0  0  0  0  0  0  0  0  0  0
    5.4348    8.0798    7.0048 O   0  0  0  0  0  0  0  0  0  0  0  0
    5.6817    6.5095    8.9811 N   0  0  0  0  0  0  0  0  0  0  0  0
    4.8082    7.4017    9.7925 C   0  0  0  0  0  0  0  0  0  0  0  0
    5.5096    7.7886   11.1226 C   0  0  0  0  0  0  0  0  0  0  0  0
    6.9573    7.6050   11.0082 N   0  0  0  0  0  0  0  0  0  0  0  0
    7.8262    8.5897   10.5490 C   0  0  0  0  0  0  0  0  0  0  0  0
    8.9526    8.2880   10.1437 O   0  0  0  0  0  0  0  0  0  0  0  0
    7.4977   10.0653   10.6861 C   0  0  0  0  0  0  0  0  0  0  0  0
    6.1314   10.6009    9.7061 Cl  0  0  0  0  0  0  0  0  0  0  0  0
    7.3314    6.1889   10.7892 C   0  0  0  0  0  0  0  0  0  0  0  0
    6.3607    5.4889    9.8016 C   0  0  0  0  0  0  0  0  0  0  0  0
    8.6349    5.9301    7.6114 C   0  0  0  0  0  0  0  0  0  0  0  0
    9.9963    6.1597    7.8052 C   0  0  0  0  0  0  0  0  0  0  0  0
   12.1279    8.6506    9.7504 H   0  0  0  0  0  0  0  0  0  0  0  0
   12.8382    7.0343    9.5404 H   0  0  0  0  0  0  0  0  0  0  0  0
   11.1127    7.2035    9.8723 H   0  0  0  0  0  0  0  0  0  0  0  0
   10.1927    9.3132    6.5638 H   0  0  0  0  0  0  0  0  0  0  0  0
    7.7501    8.9428    6.2976 H   0  0  0  0  0  0  0  0  0  0  0  0
    3.8880    6.8505   10.0283 H   0  0  0  0  0  0  0  0  0  0  0  0
    4.5010    8.2912    9.2435 H   0  0  0  0  0  0  0  0  0  0  0  0
    5.1711    7.1170   11.9242 H   0  0  0  0  0  0  0  0  0  0  0  0
    5.2409    8.7942   11.4492 H   0  0  0  0  0  0  0  0  0  0  0  0
    8.3598   10.6318   10.3172 H   0  0  0  0  0  0  0  0  0  0  0  0
    7.3469   10.3185   11.7379 H   0  0  0  0  0  0  0  0  0  0  0  0
    7.2856    5.6823   11.7608 H   0  0  0  0  0  0  0  0  0  0  0  0
    8.3635    6.0976   10.4421 H   0  0  0  0  0  0  0  0  0  0  0  0
    6.8388    4.7002    9.2246 H   0  0  0  0  0  0  0  0  0  0  0  0
    5.5909    4.9602   10.3789 H   0  0  0  0  0  0  0  0  0  0  0  0
    8.2421    4.9437    7.8217 H   0  0  0  0  0  0  0  0  0  0  0  0
   10.6251    5.3825    8.2293 H   0  0  0  0  0  0  0  0  0  0  0  0
  1  2  1  0  0  0  0
  1 22  1  0  0  0  0
  1 23  1  0  0  0  0
  1 24  1  0  0  0  0
  2  3  1  0  0  0  0
  3  4  1  0  0  0  0
  3 21  2  0  0  0  0
  4  5  2  0  0  0  0
  4 25  1  0  0  0  0
  5  6  1  0  0  0  0
  5 26  1  0  0  0  0
  6  7  1  0  0  0  0
  6 20  2  0  0  0  0
  7  8  2  0  0  0  0
  7  9  2  0  0  0  0
  7 10  1  0  0  0  0
 10 11  1  0  0  0  0
 10 19  1  0  0  0  0
 11 12  1  0  0  0  0
 11 27  1  0  0  0  0
 11 28  1  0  0  0  0
 12 13  1  0  0  0  0
 12 29  1  0  0  0  0
 12 30  1  0  0  0  0
 13 14  1  0  0  0  0
 13 18  1  0  0  0  0
 14 15  2  0  0  0  0
 14 16  1  0  0  0  0
 16 17  1  0  0  0  0
 16 31  1  0  0  0  0
 16 32  1  0  0  0  0
 18 19  1  0  0  0  0
 18 33  1  0  0  0  0
 18 34  1  0  0  0  0
 19 35  1  0  0  0  0
 19 36  1  0  0  0  0
 20 21  1  0  0  0  0
 20 37  1  0  0  0  0
 21 38  1  0  0  0  0
M  END
>  <name>


>  <Energy>
75.4334

$$$$
