
 OpenBabel06082022513D

 40 41  0  0  0  0  0  0  0  0999 V2000
    7.4137    9.2786   10.8103 C   0  0  0  0  0  0  0  0  0  0  0  0
    6.5058    8.3622   10.0460 C   0  0  0  0  0  0  0  0  0  0  0  0
    6.3240    8.5367    8.6688 C   0  0  0  0  0  0  0  0  0  0  0  0
    5.5158    7.6578    7.9447 C   0  0  0  0  0  0  0  0  0  0  0  0
    4.8693    6.5894    8.5872 C   0  0  0  0  0  0  0  0  0  0  0  0
    4.1593    5.5207    7.7781 C   0  0  0  0  0  0  0  0  0  0  0  0
    5.1472    4.5619    7.3094 N   0  0  0  0  0  0  0  0  0  0  0  0
    5.4015    4.5367    5.8844 C   0  0  0  0  0  0  0  0  0  0  0  0
    6.7805    3.9733    5.5256 C   0  0  0  0  0  0  0  0  0  0  0  0
    7.8548    4.3641    6.5487 C   0  0  0  0  0  0  0  0  0  0  0  0
    7.7478    3.6988    7.8582 N   0  0  0  0  0  0  0  0  0  0  0  0
    8.4875    4.0765    8.9741 C   0  0  0  0  0  0  0  0  0  0  0  0
    8.7707    3.2747    9.8689 O   0  0  0  0  0  0  0  0  0  0  0  0
    8.8066    5.5476    9.1352 C   0  0  0  0  0  0  0  0  0  0  0  0
   10.3114    5.9859    8.3245 Cl  0  0  0  0  0  0  0  0  0  0  0  0
    6.7011    2.6905    8.0510 C   0  0  0  0  0  0  0  0  0  0  0  0
    5.2818    3.3236    8.0717 C   0  0  0  0  0  0  0  0  0  0  0  0
    5.0140    6.4469    9.9705 C   0  0  0  0  0  0  0  0  0  0  0  0
    5.8209    7.3356   10.7037 C   0  0  0  0  0  0  0  0  0  0  0  0
    8.2825    9.5610   10.2056 H   0  0  0  0  0  0  0  0  0  0  0  0
    7.7976    8.7877   11.7125 H   0  0  0  0  0  0  0  0  0  0  0  0
    6.8750   10.1842   11.1042 H   0  0  0  0  0  0  0  0  0  0  0  0
    6.8444    9.3345    8.1432 H   0  0  0  0  0  0  0  0  0  0  0  0
    5.4343    7.7743    6.8670 H   0  0  0  0  0  0  0  0  0  0  0  0
    3.6262    6.0025    6.9466 H   0  0  0  0  0  0  0  0  0  0  0  0
    3.3748    5.0427    8.3778 H   0  0  0  0  0  0  0  0  0  0  0  0
    5.3719    5.5618    5.4921 H   0  0  0  0  0  0  0  0  0  0  0  0
    4.6196    3.9810    5.3537 H   0  0  0  0  0  0  0  0  0  0  0  0
    7.0692    4.3654    4.5421 H   0  0  0  0  0  0  0  0  0  0  0  0
    6.7270    2.8858    5.4045 H   0  0  0  0  0  0  0  0  0  0  0  0
    7.8605    5.4504    6.6783 H   0  0  0  0  0  0  0  0  0  0  0  0
    8.8393    4.0883    6.1533 H   0  0  0  0  0  0  0  0  0  0  0  0
    8.9027    5.7680   10.2040 H   0  0  0  0  0  0  0  0  0  0  0  0
    7.9882    6.1539    8.7496 H   0  0  0  0  0  0  0  0  0  0  0  0
    6.8497    2.1692    9.0045 H   0  0  0  0  0  0  0  0  0  0  0  0
    6.7948    1.9300    7.2698 H   0  0  0  0  0  0  0  0  0  0  0  0
    4.5414    2.5821    7.7492 H   0  0  0  0  0  0  0  0  0  0  0  0
    5.0585    3.5325    9.1262 H   0  0  0  0  0  0  0  0  0  0  0  0
    4.5347    5.6244   10.4938 H   0  0  0  0  0  0  0  0  0  0  0  0
    5.9387    7.1840   11.7693 H   0  0  0  0  0  0  0  0  0  0  0  0
  1  2  1  0  0  0  0
  1 20  1  0  0  0  0
  1 21  1  0  0  0  0
  1 22  1  0  0  0  0
  2  3  1  0  0  0  0
  2 19  2  0  0  0  0
  3  4  2  0  0  0  0
  3 23  1  0  0  0  0
  4  5  1  0  0  0  0
  4 24  1  0  0  0  0
  5  6  1  0  0  0  0
  5 18  2  0  0  0  0
  6  7  1  0  0  0  0
  6 25  1  0  0  0  0
  6 26  1  0  0  0  0
  7  8  1  0  0  0  0
  7 17  1  0  0  0  0
  8  9  1  0  0  0  0
  8 27  1  0  0  0  0
  8 28  1  0  0  0  0
  9 10  1  0  0  0  0
  9 29  1  0  0  0  0
  9 30  1  0  0  0  0
 10 11  1  0  0  0  0
 10 31  1  0  0  0  0
 10 32  1  0  0  0  0
 11 12  1  0  0  0  0
 11 16  1  0  0  0  0
 12 13  2  0  0  0  0
 12 14  1  0  0  0  0
 14 15  1  0  0  0  0
 14 33  1  0  0  0  0
 14 34  1  0  0  0  0
 16 17  1  0  0  0  0
 16 35  1  0  0  0  0
 16 36  1  0  0  0  0
 17 37  1  0  0  0  0
 17 38  1  0  0  0  0
 18 19  1  0  0  0  0
 18 39  1  0  0  0  0
 19 40  1  0  0  0  0
M  END
>  <name>


>  <Energy>
76.0236

$$$$
