
 OpenBabel06082022513D

 42 43  0  0  0  0  0  0  0  0999 V2000
    7.1990   10.4567   13.0544 C   0  0  0  0  0  0  0  0  0  0  0  0
    7.8977    9.3694   12.4589 O   0  0  0  0  0  0  0  0  0  0  0  0
    7.4179    8.8842   11.2791 C   0  0  0  0  0  0  0  0  0  0  0  0
    7.8735    7.6134   10.9358 C   0  0  0  0  0  0  0  0  0  0  0  0
    7.4735    7.0020    9.7412 C   0  0  0  0  0  0  0  0  0  0  0  0
    6.6551    7.6731    8.8301 C   0  0  0  0  0  0  0  0  0  0  0  0
    6.2574    7.1392    7.6421 O   0  0  0  0  0  0  0  0  0  0  0  0
    6.4672    5.7476    7.4231 C   0  0  0  0  0  0  0  0  0  0  0  0
    6.2773    8.9864    9.1419 C   0  0  0  0  0  0  0  0  0  0  0  0
    5.5692   10.0935    7.9329 S   0  0  0  0  0  0  0  0  0  0  0  0
    4.7522   11.0405    8.6691 O   0  0  0  0  0  0  0  0  0  0  0  0
    5.0003    9.3513    6.8340 O   0  0  0  0  0  0  0  0  0  0  0  0
    6.9169   10.9689    7.3495 N   0  0  0  0  0  0  0  0  0  0  0  0
    7.0137   11.1769    5.8826 C   0  0  0  0  0  0  0  0  0  0  0  0
    8.1248   10.2900    5.3162 C   0  0  0  0  0  0  0  0  0  0  0  0
    9.4353   10.5767    5.9328 N   0  0  0  0  0  0  0  0  0  0  0  0
   10.5409    9.8925    5.4388 C   0  0  0  0  0  0  0  0  0  0  0  0
   10.4063    8.9895    4.6108 O   0  0  0  0  0  0  0  0  0  0  0  0
   11.9011   10.3139    5.9765 C   0  0  0  0  0  0  0  0  0  0  0  0
   13.1809    9.9947    4.7866 Cl  0  0  0  0  0  0  0  0  0  0  0  0
    9.4097   11.3468    7.1860 C   0  0  0  0  0  0  0  0  0  0  0  0
    8.2240   10.9172    8.0652 C   0  0  0  0  0  0  0  0  0  0  0  0
    6.6061    9.5685   10.3864 C   0  0  0  0  0  0  0  0  0  0  0  0
    7.6888   11.4007   12.7946 H   0  0  0  0  0  0  0  0  0  0  0  0
    7.2631   10.3252   14.1383 H   0  0  0  0  0  0  0  0  0  0  0  0
    6.1365   10.4901   12.7957 H   0  0  0  0  0  0  0  0  0  0  0  0
    8.5524    7.0900   11.6053 H   0  0  0  0  0  0  0  0  0  0  0  0
    7.8575    6.0043    9.5409 H   0  0  0  0  0  0  0  0  0  0  0  0
    5.8609    5.4451    6.5636 H   0  0  0  0  0  0  0  0  0  0  0  0
    6.1465    5.1392    8.2765 H   0  0  0  0  0  0  0  0  0  0  0  0
    7.5174    5.5594    7.1794 H   0  0  0  0  0  0  0  0  0  0  0  0
    7.2427   12.2361    5.7099 H   0  0  0  0  0  0  0  0  0  0  0  0
    6.0642   10.9908    5.3733 H   0  0  0  0  0  0  0  0  0  0  0  0
    8.2160   10.4279    4.2327 H   0  0  0  0  0  0  0  0  0  0  0  0
    7.8957    9.2347    5.5058 H   0  0  0  0  0  0  0  0  0  0  0  0
   12.1266    9.7561    6.8889 H   0  0  0  0  0  0  0  0  0  0  0  0
   11.9227   11.3878    6.1741 H   0  0  0  0  0  0  0  0  0  0  0  0
    9.3224   12.4072    6.9151 H   0  0  0  0  0  0  0  0  0  0  0  0
   10.3365   11.2156    7.7436 H   0  0  0  0  0  0  0  0  0  0  0  0
    8.4494    9.8869    8.3527 H   0  0  0  0  0  0  0  0  0  0  0  0
    8.1786   11.5434    8.9606 H   0  0  0  0  0  0  0  0  0  0  0  0
    6.2982   10.5920   10.5842 H   0  0  0  0  0  0  0  0  0  0  0  0
  1  2  1  0  0  0  0
  1 24  1  0  0  0  0
  1 25  1  0  0  0  0
  1 26  1  0  0  0  0
  2  3  1  0  0  0  0
  3  4  1  0  0  0  0
  3 23  2  0  0  0  0
  4  5  2  0  0  0  0
  4 27  1  0  0  0  0
  5  6  1  0  0  0  0
  5 28  1  0  0  0  0
  6  7  1  0  0  0  0
  6  9  2  0  0  0  0
  7  8  1  0  0  0  0
  8 29  1  0  0  0  0
  8 30  1  0  0  0  0
  8 31  1  0  0  0  0
  9 10  1  0  0  0  0
  9 23  1  0  0  0  0
 10 11  2  0  0  0  0
 10 12  2  0  0  0  0
 10 13  1  0  0  0  0
 13 14  1  0  0  0  0
 13 22  1  0  0  0  0
 14 15  1  0  0  0  0
 14 32  1  0  0  0  0
 14 33  1  0  0  0  0
 15 16  1  0  0  0  0
 15 34  1  0  0  0  0
 15 35  1  0  0  0  0
 16 17  1  0  0  0  0
 16 21  1  0  0  0  0
 17 18  2  0  0  0  0
 17 19  1  0  0  0  0
 19 20  1  0  0  0  0
 19 36  1  0  0  0  0
 19 37  1  0  0  0  0
 21 22  1  0  0  0  0
 21 38  1  0  0  0  0
 21 39  1  0  0  0  0
 22 40  1  0  0  0  0
 22 41  1  0  0  0  0
 23 42  1  0  0  0  0
M  END
>  <name>


>  <Energy>
62.1674

$$$$
