
 OpenBabel06082022513D

 39 41  0  0  0  0  0  0  0  0999 V2000
   10.2784    6.1823    4.3590 O   0  0  0  0  0  0  0  0  0  0  0  0
    9.3876    7.0364    4.3279 C   0  0  0  0  0  0  0  0  0  0  0  0
    9.7215    8.4640    3.9116 C   0  0  0  0  0  0  0  0  0  0  0  0
   11.0028    9.1258    4.9508 Cl  0  0  0  0  0  0  0  0  0  0  0  0
    8.0706    6.7021    4.6089 N   0  0  0  0  0  0  0  0  0  0  0  0
    6.9590    7.6359    4.8092 C   0  0  0  0  0  0  0  0  0  0  0  0
    5.9562    7.1241    5.8708 C   0  0  0  0  0  0  0  0  0  0  0  0
    6.4888    6.1635    6.8640 N   0  0  0  0  0  0  0  0  0  0  0  0
    7.5247    6.6817    7.7945 C   0  0  0  0  0  0  0  0  0  0  0  0
    7.3591    8.1404    8.1661 C   0  0  0  0  0  0  0  0  0  0  0  0
    6.2995    8.5695    8.9932 C   0  0  0  0  0  0  0  0  0  0  0  0
    5.9505    9.9239    9.0479 C   0  0  0  0  0  0  0  0  0  0  0  0
    6.6441   10.7972    8.2387 C   0  0  0  0  0  0  0  0  0  0  0  0
    7.7336   10.3959    7.4878 C   0  0  0  0  0  0  0  0  0  0  0  0
    8.1545    9.0847    7.5031 C   0  0  0  0  0  0  0  0  0  0  0  0
    8.2316   11.5302    6.6821 C   0  0  0  0  0  0  0  0  0  0  0  0
    6.9898   12.4163    6.7858 C   0  0  0  0  0  0  0  0  0  0  0  0
    6.3067   12.1112    8.0283 O   0  0  0  0  0  0  0  0  0  0  0  0
    7.0246    4.9887    6.1354 C   0  0  0  0  0  0  0  0  0  0  0  0
    7.7055    5.2923    4.7737 C   0  0  0  0  0  0  0  0  0  0  0  0
    8.8806    9.1532    3.9379 H   0  0  0  0  0  0  0  0  0  0  0  0
   10.0998    8.4389    2.8856 H   0  0  0  0  0  0  0  0  0  0  0  0
    6.4516    7.7476    3.8447 H   0  0  0  0  0  0  0  0  0  0  0  0
    7.3310    8.6191    5.0907 H   0  0  0  0  0  0  0  0  0  0  0  0
    5.1395    6.6146    5.3390 H   0  0  0  0  0  0  0  0  0  0  0  0
    5.4531    7.9721    6.3480 H   0  0  0  0  0  0  0  0  0  0  0  0
    8.5347    6.5404    7.3870 H   0  0  0  0  0  0  0  0  0  0  0  0
    7.4918    6.0830    8.7137 H   0  0  0  0  0  0  0  0  0  0  0  0
    5.6966    7.8362    9.5253 H   0  0  0  0  0  0  0  0  0  0  0  0
    5.1050   10.2584    9.6377 H   0  0  0  0  0  0  0  0  0  0  0  0
    8.9976    8.7676    6.9026 H   0  0  0  0  0  0  0  0  0  0  0  0
    8.4577   11.2724    5.6472 H   0  0  0  0  0  0  0  0  0  0  0  0
    9.1020   11.9923    7.1627 H   0  0  0  0  0  0  0  0  0  0  0  0
    6.2917   12.2103    5.9625 H   0  0  0  0  0  0  0  0  0  0  0  0
    7.2413   13.4819    6.7548 H   0  0  0  0  0  0  0  0  0  0  0  0
    6.1897    4.3013    5.9437 H   0  0  0  0  0  0  0  0  0  0  0  0
    7.7129    4.4176    6.7717 H   0  0  0  0  0  0  0  0  0  0  0  0
    8.5613    4.6289    4.6301 H   0  0  0  0  0  0  0  0  0  0  0  0
    6.9941    5.0727    3.9639 H   0  0  0  0  0  0  0  0  0  0  0  0
  1  2  2  0  0  0  0
  2  3  1  0  0  0  0
  2  5  1  0  0  0  0
  3  4  1  0  0  0  0
  3 21  1  0  0  0  0
  3 22  1  0  0  0  0
  5  6  1  0  0  0  0
  5 20  1  0  0  0  0
  6  7  1  0  0  0  0
  6 23  1  0  0  0  0
  6 24  1  0  0  0  0
  7  8  1  0  0  0  0
  7 25  1  0  0  0  0
  7 26  1  0  0  0  0
  8  9  1  0  0  0  0
  8 19  1  0  0  0  0
  9 10  1  0  0  0  0
  9 27  1  0  0  0  0
  9 28  1  0  0  0  0
 10 11  1  0  0  0  0
 10 15  2  0  0  0  0
 11 12  2  0  0  0  0
 11 29  1  0  0  0  0
 12 13  1  0  0  0  0
 12 30  1  0  0  0  0
 13 14  2  0  0  0  0
 13 18  1  0  0  0  0
 14 15  1  0  0  0  0
 14 16  1  0  0  0  0
 15 31  1  0  0  0  0
 16 17  1  0  0  0  0
 16 32  1  0  0  0  0
 16 33  1  0  0  0  0
 17 18  1  0  0  0  0
 17 34  1  0  0  0  0
 17 35  1  0  0  0  0
 19 20  1  0  0  0  0
 19 36  1  0  0  0  0
 19 37  1  0  0  0  0
 20 38  1  0  0  0  0
 20 39  1  0  0  0  0
M  END
>  <name>


>  <Energy>
114.746

$$$$
