
 OpenBabel06082022513D

 38 40  0  0  0  0  0  0  0  0999 V2000
    8.2889   11.4246   10.1734 O   0  0  0  0  0  0  0  0  0  0  0  0
    7.5976   10.6123   10.8045 C   0  0  0  0  0  0  0  0  0  0  0  0
    8.2248    9.7514   11.8856 C   0  0  0  0  0  0  0  0  0  0  0  0
    7.2870    9.8596   13.3817 Cl  0  0  0  0  0  0  0  0  0  0  0  0
    6.2648   10.4117   10.4592 N   0  0  0  0  0  0  0  0  0  0  0  0
    5.6351    9.0820   10.4269 C   0  0  0  0  0  0  0  0  0  0  0  0
    5.1304    8.7333    8.9912 C   0  0  0  0  0  0  0  0  0  0  0  0
    6.0092    9.3706    7.9189 N   0  0  0  0  0  0  0  0  0  0  0  0
    7.4538    8.5288    7.7643 S   0  0  0  0  0  0  0  0  0  0  0  0
    7.1932    7.2842    7.0711 O   0  0  0  0  0  0  0  0  0  0  0  0
    8.1933    8.4933    9.0009 O   0  0  0  0  0  0  0  0  0  0  0  0
    8.5302    9.4178    6.6024 C   0  0  0  0  0  0  0  0  0  0  0  0
    9.7527    9.8852    7.1426 C   0  0  0  0  0  0  0  0  0  0  0  0
   10.9547    9.6558    6.4623 C   0  0  0  0  0  0  0  0  0  0  0  0
   10.9154    8.9515    5.2669 C   0  0  0  0  0  0  0  0  0  0  0  0
    9.6374    8.6306    4.6542 C   0  0  0  0  0  0  0  0  0  0  0  0
    8.4494    8.9500    5.2877 C   0  0  0  0  0  0  0  0  0  0  0  0
    9.5799    7.9124    3.6084 O   0  0  0  0  0  0  0  0  0  0  0  0
   10.6446    7.3072    3.2520 C   0  0  0  0  0  0  0  0  0  0  0  0
   11.8969    7.5912    3.8774 C   0  0  0  0  0  0  0  0  0  0  0  0
   11.9962    8.4744    4.7926 O   0  0  0  0  0  0  0  0  0  0  0  0
    6.0234   10.8737    8.0721 C   0  0  0  0  0  0  0  0  0  0  0  0
    5.6838   11.3388    9.4949 C   0  0  0  0  0  0  0  0  0  0  0  0
    9.2315   10.1280   12.0921 H   0  0  0  0  0  0  0  0  0  0  0  0
    8.3077    8.7087   11.5752 H   0  0  0  0  0  0  0  0  0  0  0  0
    4.7859    9.0855   11.1192 H   0  0  0  0  0  0  0  0  0  0  0  0
    6.3310    8.3127   10.7693 H   0  0  0  0  0  0  0  0  0  0  0  0
    4.1102    9.1083    8.8470 H   0  0  0  0  0  0  0  0  0  0  0  0
    5.0766    7.6473    8.8509 H   0  0  0  0  0  0  0  0  0  0  0  0
    9.7897   10.2594    8.1730 H   0  0  0  0  0  0  0  0  0  0  0  0
   11.9062    9.8909    6.9351 H   0  0  0  0  0  0  0  0  0  0  0  0
    7.5106    8.5809    4.8779 H   0  0  0  0  0  0  0  0  0  0  0  0
   10.5861    6.5532    2.4678 H   0  0  0  0  0  0  0  0  0  0  0  0
   12.7846    7.0336    3.5753 H   0  0  0  0  0  0  0  0  0  0  0  0
    5.2923   11.2891    7.3684 H   0  0  0  0  0  0  0  0  0  0  0  0
    6.9954   11.2741    7.7751 H   0  0  0  0  0  0  0  0  0  0  0  0
    6.0472   12.3574    9.6644 H   0  0  0  0  0  0  0  0  0  0  0  0
    4.5977   11.3527    9.6550 H   0  0  0  0  0  0  0  0  0  0  0  0
  1  2  2  0  0  0  0
  2  3  1  0  0  0  0
  2  5  1  0  0  0  0
  3  4  1  0  0  0  0
  3 24  1  0  0  0  0
  3 25  1  0  0  0  0
  5  6  1  0  0  0  0
  5 23  1  0  0  0  0
  6  7  1  0  0  0  0
  6 26  1  0  0  0  0
  6 27  1  0  0  0  0
  7  8  1  0  0  0  0
  7 28  1  0  0  0  0
  7 29  1  0  0  0  0
  8  9  1  0  0  0  0
  8 22  1  0  0  0  0
  9 10  2  0  0  0  0
  9 11  2  0  0  0  0
  9 12  1  0  0  0  0
 12 13  1  0  0  0  0
 12 17  2  0  0  0  0
 13 14  2  0  0  0  0
 13 30  1  0  0  0  0
 14 15  1  0  0  0  0
 14 31  1  0  0  0  0
 15 16  2  0  0  0  0
 15 21  1  0  0  0  0
 16 17  1  0  0  0  0
 16 18  1  0  0  0  0
 17 32  1  0  0  0  0
 18 19  2  0  0  0  0
 19 20  1  0  0  0  0
 19 33  1  0  0  0  0
 20 21  2  0  0  0  0
 20 34  1  0  0  0  0
 22 23  1  0  0  0  0
 22 35  1  0  0  0  0
 22 36  1  0  0  0  0
 23 37  1  0  0  0  0
 23 38  1  0  0  0  0
M  END
>  <name>


>  <Energy>
291.469

$$$$
