
 OpenBabel06082022513D

 38 39  0  0  0  0  0  0  0  0999 V2000
   12.3769    8.7729    8.4045 O   0  0  0  0  0  0  0  0  0  0  0  0
   11.3925    8.7913    9.1488 C   0  0  0  0  0  0  0  0  0  0  0  0
   11.5664    9.0423   10.6370 C   0  0  0  0  0  0  0  0  0  0  0  0
   11.5328   10.8072   10.8831 Cl  0  0  0  0  0  0  0  0  0  0  0  0
   10.1072    8.7206    8.6335 N   0  0  0  0  0  0  0  0  0  0  0  0
    8.9004    8.3753    9.3718 C   0  0  0  0  0  0  0  0  0  0  0  0
    7.8366    9.4596    9.1996 C   0  0  0  0  0  0  0  0  0  0  0  0
    7.4113    9.5763    7.7742 N   0  0  0  0  0  0  0  0  0  0  0  0
    5.8114    9.0539    7.4175 S   0  0  0  0  0  0  0  0  0  0  0  0
    5.5643    9.3840    6.0353 O   0  0  0  0  0  0  0  0  0  0  0  0
    4.9459    9.5599    8.4667 O   0  0  0  0  0  0  0  0  0  0  0  0
    5.9259    7.3205    7.5290 C   0  0  0  0  0  0  0  0  0  0  0  0
    5.8027    6.7177    8.7242 C   0  0  0  0  0  0  0  0  0  0  0  0
    6.5330    5.4705    9.0057 C   0  0  0  0  0  0  0  0  0  0  0  0
    7.1010    5.3351   10.2813 C   0  0  0  0  0  0  0  0  0  0  0  0
    8.0450    4.3388   10.5362 C   0  0  0  0  0  0  0  0  0  0  0  0
    8.4031    3.4482    9.5281 C   0  0  0  0  0  0  0  0  0  0  0  0
    7.7846    3.5223    8.2820 C   0  0  0  0  0  0  0  0  0  0  0  0
    6.8414    4.5206    8.0240 C   0  0  0  0  0  0  0  0  0  0  0  0
    8.4494    9.1695    6.7618 C   0  0  0  0  0  0  0  0  0  0  0  0
    9.9012    9.2261    7.2747 C   0  0  0  0  0  0  0  0  0  0  0  0
   12.5343    8.6589   10.9683 H   0  0  0  0  0  0  0  0  0  0  0  0
   10.7967    8.6006   11.2649 H   0  0  0  0  0  0  0  0  0  0  0  0
    9.0917    8.1800   10.4257 H   0  0  0  0  0  0  0  0  0  0  0  0
    8.5633    7.4313    8.9407 H   0  0  0  0  0  0  0  0  0  0  0  0
    8.2383   10.4308    9.5121 H   0  0  0  0  0  0  0  0  0  0  0  0
    6.9919    9.2441    9.8596 H   0  0  0  0  0  0  0  0  0  0  0  0
    6.3582    6.8466    6.6600 H   0  0  0  0  0  0  0  0  0  0  0  0
    5.4114    7.2612    9.5826 H   0  0  0  0  0  0  0  0  0  0  0  0
    6.8694    6.0465   11.0712 H   0  0  0  0  0  0  0  0  0  0  0  0
    8.5220    4.2788   11.5107 H   0  0  0  0  0  0  0  0  0  0  0  0
    9.1656    2.6954    9.7129 H   0  0  0  0  0  0  0  0  0  0  0  0
    8.0589    2.8207    7.4979 H   0  0  0  0  0  0  0  0  0  0  0  0
    6.3981    4.5694    7.0326 H   0  0  0  0  0  0  0  0  0  0  0  0
    8.3584    9.8236    5.8880 H   0  0  0  0  0  0  0  0  0  0  0  0
    8.2589    8.1440    6.4306 H   0  0  0  0  0  0  0  0  0  0  0  0
   10.5602    8.6761    6.5909 H   0  0  0  0  0  0  0  0  0  0  0  0
   10.2433   10.2679    7.2787 H   0  0  0  0  0  0  0  0  0  0  0  0
  1  2  2  0  0  0  0
  2  3  1  0  0  0  0
  2  5  1  0  0  0  0
  3  4  1  0  0  0  0
  3 22  1  0  0  0  0
  3 23  1  0  0  0  0
  5  6  1  0  0  0  0
  5 21  1  0  0  0  0
  6  7  1  0  0  0  0
  6 24  1  0  0  0  0
  6 25  1  0  0  0  0
  7  8  1  0  0  0  0
  7 26  1  0  0  0  0
  7 27  1  0  0  0  0
  8  9  1  0  0  0  0
  8 20  1  0  0  0  0
  9 10  2  0  0  0  0
  9 11  2  0  0  0  0
  9 12  1  0  0  0  0
 12 13  2  0  0  0  0
 12 28  1  0  0  0  0
 13 14  1  0  0  0  0
 13 29  1  0  0  0  0
 14 15  1  0  0  0  0
 14 19  2  0  0  0  0
 15 16  2  0  0  0  0
 15 30  1  0  0  0  0
 16 17  1  0  0  0  0
 16 31  1  0  0  0  0
 17 18  2  0  0  0  0
 17 32  1  0  0  0  0
 18 19  1  0  0  0  0
 18 33  1  0  0  0  0
 19 34  1  0  0  0  0
 20 21  1  0  0  0  0
 20 35  1  0  0  0  0
 20 36  1  0  0  0  0
 21 37  1  0  0  0  0
 21 38  1  0  0  0  0
M  END
>  <name>


>  <Energy>
28.4439

$$$$
