
 OpenBabel06082022513D

 29 30  0  0  0  0  0  0  0  0999 V2000
   10.0459    7.4622   10.1657 C   0  0  0  0  0  0  0  0  0  0  0  0
    9.0245    7.4892    9.0645 C   0  0  0  0  0  0  0  0  0  0  0  0
    9.3315    8.0467    7.8182 C   0  0  0  0  0  0  0  0  0  0  0  0
    8.4641    7.8817    6.7377 C   0  0  0  0  0  0  0  0  0  0  0  0
    7.3415    7.0641    6.8663 C   0  0  0  0  0  0  0  0  0  0  0  0
    7.0725    6.4357    8.0909 C   0  0  0  0  0  0  0  0  0  0  0  0
    6.3792    5.1768    8.0655 N   0  0  0  0  0  0  0  0  0  0  0  0
    7.2185    4.0870    7.6957 C   0  0  0  0  0  0  0  0  0  0  0  0
    7.0331    3.3978    6.6881 O   0  0  0  0  0  0  0  0  0  0  0  0
    8.3361    3.7469    8.6661 C   0  0  0  0  0  0  0  0  0  0  0  0
    9.9138    3.9953    7.9036 Cl  0  0  0  0  0  0  0  0  0  0  0  0
    5.0214    5.0805    7.7671 C   0  0  0  0  0  0  0  0  0  0  0  0
    4.4136    3.8398    7.3979 C   0  0  0  0  0  0  0  0  0  0  0  0
    3.2315    3.8017    7.2187 C   0  0  0  0  0  0  0  0  0  0  0  0
    2.4943    5.3725    7.5268 S   0  0  0  0  0  0  0  0  0  0  0  0
    2.0235    5.6511    6.1906 O   0  0  0  0  0  0  0  0  0  0  0  0
    1.7033    5.0029    8.6722 O   0  0  0  0  0  0  0  0  0  0  0  0
    4.0775    6.0437    7.8998 C   0  0  0  0  0  0  0  0  0  0  0  0
    7.8428    6.7535    9.2134 C   0  0  0  0  0  0  0  0  0  0  0  0
   10.8044    8.2387   10.0341 H   0  0  0  0  0  0  0  0  0  0  0  0
   10.5500    6.4877   10.1569 H   0  0  0  0  0  0  0  0  0  0  0  0
    9.5745    7.6022   11.1426 H   0  0  0  0  0  0  0  0  0  0  0  0
   10.2769    8.5638    7.6645 H   0  0  0  0  0  0  0  0  0  0  0  0
    8.7254    8.2954    5.7660 H   0  0  0  0  0  0  0  0  0  0  0  0
    6.7677    6.8179    5.9750 H   0  0  0  0  0  0  0  0  0  0  0  0
    8.2363    2.6913    8.9334 H   0  0  0  0  0  0  0  0  0  0  0  0
    8.2921    4.3042    9.6004 H   0  0  0  0  0  0  0  0  0  0  0  0
    4.1852    7.0618    8.2272 H   0  0  0  0  0  0  0  0  0  0  0  0
    7.6206    6.2938   10.1740 H   0  0  0  0  0  0  0  0  0  0  0  0
  1  2  1  0  0  0  0
  1 20  1  0  0  0  0
  1 21  1  0  0  0  0
  1 22  1  0  0  0  0
  2  3  1  0  0  0  0
  2 19  2  0  0  0  0
  3  4  2  0  0  0  0
  3 23  1  0  0  0  0
  4  5  1  0  0  0  0
  4 24  1  0  0  0  0
  5  6  2  0  0  0  0
  5 25  1  0  0  0  0
  6  7  1  0  0  0  0
  6 19  1  0  0  0  0
  7  8  1  0  0  0  0
  7 12  1  0  0  0  0
  8  9  2  0  0  0  0
  8 10  1  0  0  0  0
 10 11  1  0  0  0  0
 10 26  1  0  0  0  0
 10 27  1  0  0  0  0
 12 13  1  0  0  0  0
 12 18  2  0  0  0  0
 13 14  3  0  0  0  0
 14 15  1  0  0  0  0
 15 16  2  0  0  0  0
 15 17  2  0  0  0  0
 15 18  1  0  0  0  0
 18 28  1  0  0  0  0
 19 29  1  0  0  0  0
M  END
>  <name>


>  <Energy>
156.177

$$$$
