
 OpenBabel06082022513D

 39 40  0  0  0  0  0  0  0  0999 V2000
    5.0758   10.3037    4.7193 C   0  0  0  0  0  0  0  0  0  0  0  0
    6.3989    9.6124    4.4618 C   0  0  0  0  0  0  0  0  0  0  0  0
    7.3015   10.0883    3.7782 O   0  0  0  0  0  0  0  0  0  0  0  0
    6.5874    8.3346    5.1773 C   0  0  0  0  0  0  0  0  0  0  0  0
    7.4824    8.3506    6.2451 C   0  0  0  0  0  0  0  0  0  0  0  0
    7.1696    7.5951    7.3686 C   0  0  0  0  0  0  0  0  0  0  0  0
    5.9360    6.9178    7.4047 C   0  0  0  0  0  0  0  0  0  0  0  0
    4.7706    7.6374    8.6233 S   0  0  0  0  0  0  0  0  0  0  0  0
    5.1635    9.0288    8.7352 O   0  0  0  0  0  0  0  0  0  0  0  0
    3.4305    7.3108    8.1934 O   0  0  0  0  0  0  0  0  0  0  0  0
    4.9972    6.8669   10.1171 N   0  0  0  0  0  0  0  0  0  0  0  0
    4.2113    7.5528   11.1991 C   0  0  0  0  0  0  0  0  0  0  0  0
    4.8410    8.9023   11.6047 C   0  0  0  0  0  0  0  0  0  0  0  0
    6.2857    9.0342   11.3497 N   0  0  0  0  0  0  0  0  0  0  0  0
    6.8143   10.3264   11.3607 C   0  0  0  0  0  0  0  0  0  0  0  0
    6.1231   11.3011   11.6708 O   0  0  0  0  0  0  0  0  0  0  0  0
    8.2738   10.5301   10.9844 C   0  0  0  0  0  0  0  0  0  0  0  0
    8.4107   10.7471    9.2290 Cl  0  0  0  0  0  0  0  0  0  0  0  0
    7.0842    7.8217   11.1807 C   0  0  0  0  0  0  0  0  0  0  0  0
    6.3556    6.5925   10.6230 C   0  0  0  0  0  0  0  0  0  0  0  0
    5.2886    6.5926    6.2040 C   0  0  0  0  0  0  0  0  0  0  0  0
    5.5834    7.3647    5.0849 C   0  0  0  0  0  0  0  0  0  0  0  0
    5.1878   11.3832    4.6009 H   0  0  0  0  0  0  0  0  0  0  0  0
    4.7463   10.1259    5.7502 H   0  0  0  0  0  0  0  0  0  0  0  0
    4.3172    9.9305    4.0271 H   0  0  0  0  0  0  0  0  0  0  0  0
    8.2675    9.1031    6.3010 H   0  0  0  0  0  0  0  0  0  0  0  0
    7.7158    7.8118    8.2808 H   0  0  0  0  0  0  0  0  0  0  0  0
    4.1786    6.8862   12.0681 H   0  0  0  0  0  0  0  0  0  0  0  0
    3.1669    7.6926   10.8916 H   0  0  0  0  0  0  0  0  0  0  0  0
    4.6676    9.0888   12.6704 H   0  0  0  0  0  0  0  0  0  0  0  0
    4.3264    9.7115   11.0698 H   0  0  0  0  0  0  0  0  0  0  0  0
    8.9132    9.7026   11.2950 H   0  0  0  0  0  0  0  0  0  0  0  0
    8.6491   11.4335   11.4732 H   0  0  0  0  0  0  0  0  0  0  0  0
    7.4961    7.5791   12.1678 H   0  0  0  0  0  0  0  0  0  0  0  0
    7.9414    8.0257   10.5371 H   0  0  0  0  0  0  0  0  0  0  0  0
    6.9606    6.0763    9.8722 H   0  0  0  0  0  0  0  0  0  0  0  0
    6.2493    5.8554   11.4317 H   0  0  0  0  0  0  0  0  0  0  0  0
    4.3648    6.0175    6.2116 H   0  0  0  0  0  0  0  0  0  0  0  0
    4.9086    7.3446    4.2313 H   0  0  0  0  0  0  0  0  0  0  0  0
  1  2  1  0  0  0  0
  1 23  1  0  0  0  0
  1 24  1  0  0  0  0
  1 25  1  0  0  0  0
  2  3  2  0  0  0  0
  2  4  1  0  0  0  0
  4  5  1  0  0  0  0
  4 22  2  0  0  0  0
  5  6  2  0  0  0  0
  5 26  1  0  0  0  0
  6  7  1  0  0  0  0
  6 27  1  0  0  0  0
  7  8  1  0  0  0  0
  7 21  2  0  0  0  0
  8  9  2  0  0  0  0
  8 10  2  0  0  0  0
  8 11  1  0  0  0  0
 11 12  1  0  0  0  0
 11 20  1  0  0  0  0
 12 13  1  0  0  0  0
 12 28  1  0  0  0  0
 12 29  1  0  0  0  0
 13 14  1  0  0  0  0
 13 30  1  0  0  0  0
 13 31  1  0  0  0  0
 14 15  1  0  0  0  0
 14 19  1  0  0  0  0
 15 16  2  0  0  0  0
 15 17  1  0  0  0  0
 17 18  1  0  0  0  0
 17 32  1  0  0  0  0
 17 33  1  0  0  0  0
 19 20  1  0  0  0  0
 19 34  1  0  0  0  0
 19 35  1  0  0  0  0
 20 36  1  0  0  0  0
 20 37  1  0  0  0  0
 21 22  1  0  0  0  0
 21 38  1  0  0  0  0
 22 39  1  0  0  0  0
M  END
>  <name>


>  <Energy>
120.815

$$$$
