
 OpenBabel06082022513D

 42 43  0  0  0  0  0  0  0  0999 V2000
    7.1541   12.5079    9.9685 C   0  0  0  0  0  0  0  0  0  0  0  0
    8.3091   12.8499    9.1817 O   0  0  0  0  0  0  0  0  0  0  0  0
    9.2020   11.8126    9.2100 C   0  0  0  0  0  0  0  0  0  0  0  0
    9.4533   11.1595    8.0112 C   0  0  0  0  0  0  0  0  0  0  0  0
   10.0770    9.9159    8.0355 C   0  0  0  0  0  0  0  0  0  0  0  0
   10.3399    9.3056    9.2645 C   0  0  0  0  0  0  0  0  0  0  0  0
   10.5845    7.5482    9.3180 S   0  0  0  0  0  0  0  0  0  0  0  0
   10.3630    7.1345   10.6888 O   0  0  0  0  0  0  0  0  0  0  0  0
   11.8241    7.2661    8.6317 O   0  0  0  0  0  0  0  0  0  0  0  0
    9.3010    6.9314    8.4140 N   0  0  0  0  0  0  0  0  0  0  0  0
    7.9028    7.0515    8.8664 C   0  0  0  0  0  0  0  0  0  0  0  0
    7.1278    8.0591    8.0101 C   0  0  0  0  0  0  0  0  0  0  0  0
    7.3098    7.9314    6.5551 N   0  0  0  0  0  0  0  0  0  0  0  0
    6.4762    8.7568    5.7819 C   0  0  0  0  0  0  0  0  0  0  0  0
    5.5030    9.3313    6.2797 O   0  0  0  0  0  0  0  0  0  0  0  0
    6.7975    8.9620    4.3093 C   0  0  0  0  0  0  0  0  0  0  0  0
    7.9093   10.3391    4.1455 Cl  0  0  0  0  0  0  0  0  0  0  0  0
    8.6121    7.4665    6.0573 C   0  0  0  0  0  0  0  0  0  0  0  0
    9.4338    6.5683    6.9946 C   0  0  0  0  0  0  0  0  0  0  0  0
   10.2615   10.0396   10.4496 C   0  0  0  0  0  0  0  0  0  0  0  0
    9.7669   11.3376   10.4026 C   0  0  0  0  0  0  0  0  0  0  0  0
    9.8088   12.0715   11.5592 O   0  0  0  0  0  0  0  0  0  0  0  0
   10.2964   13.4010   11.3218 C   0  0  0  0  0  0  0  0  0  0  0  0
    6.2787   12.9836    9.5181 H   0  0  0  0  0  0  0  0  0  0  0  0
    7.2678   12.8905   10.9877 H   0  0  0  0  0  0  0  0  0  0  0  0
    6.9595   11.4263   10.0009 H   0  0  0  0  0  0  0  0  0  0  0  0
    9.0906   11.5738    7.0730 H   0  0  0  0  0  0  0  0  0  0  0  0
   10.2825    9.4049    7.1115 H   0  0  0  0  0  0  0  0  0  0  0  0
    7.8404    7.3372    9.9211 H   0  0  0  0  0  0  0  0  0  0  0  0
    7.4336    6.0636    8.7813 H   0  0  0  0  0  0  0  0  0  0  0  0
    7.4182    9.0784    8.2815 H   0  0  0  0  0  0  0  0  0  0  0  0
    6.0587    7.9751    8.2389 H   0  0  0  0  0  0  0  0  0  0  0  0
    5.8764    9.2012    3.7697 H   0  0  0  0  0  0  0  0  0  0  0  0
    7.2390    8.0814    3.8426 H   0  0  0  0  0  0  0  0  0  0  0  0
    9.1933    8.3471    5.7813 H   0  0  0  0  0  0  0  0  0  0  0  0
    8.4452    6.9177    5.1244 H   0  0  0  0  0  0  0  0  0  0  0  0
    9.0817    5.5334    6.8937 H   0  0  0  0  0  0  0  0  0  0  0  0
   10.4779    6.5630    6.6692 H   0  0  0  0  0  0  0  0  0  0  0  0
   10.5620    9.6068   11.4017 H   0  0  0  0  0  0  0  0  0  0  0  0
   10.8038   13.7440   12.2280 H   0  0  0  0  0  0  0  0  0  0  0  0
    9.4629   14.0827   11.1272 H   0  0  0  0  0  0  0  0  0  0  0  0
   11.0235   13.4484   10.5004 H   0  0  0  0  0  0  0  0  0  0  0  0
  1  2  1  0  0  0  0
  1 24  1  0  0  0  0
  1 25  1  0  0  0  0
  1 26  1  0  0  0  0
  2  3  1  0  0  0  0
  3  4  1  0  0  0  0
  3 21  2  0  0  0  0
  4  5  2  0  0  0  0
  4 27  1  0  0  0  0
  5  6  1  0  0  0  0
  5 28  1  0  0  0  0
  6  7  1  0  0  0  0
  6 20  2  0  0  0  0
  7  8  2  0  0  0  0
  7  9  2  0  0  0  0
  7 10  1  0  0  0  0
 10 11  1  0  0  0  0
 10 19  1  0  0  0  0
 11 12  1  0  0  0  0
 11 29  1  0  0  0  0
 11 30  1  0  0  0  0
 12 13  1  0  0  0  0
 12 31  1  0  0  0  0
 12 32  1  0  0  0  0
 13 14  1  0  0  0  0
 13 18  1  0  0  0  0
 14 15  2  0  0  0  0
 14 16  1  0  0  0  0
 16 17  1  0  0  0  0
 16 33  1  0  0  0  0
 16 34  1  0  0  0  0
 18 19  1  0  0  0  0
 18 35  1  0  0  0  0
 18 36  1  0  0  0  0
 19 37  1  0  0  0  0
 19 38  1  0  0  0  0
 20 21  1  0  0  0  0
 20 39  1  0  0  0  0
 21 22  1  0  0  0  0
 22 23  1  0  0  0  0
 23 40  1  0  0  0  0
 23 41  1  0  0  0  0
 23 42  1  0  0  0  0
M  END
>  <name>


>  <Energy>
69.0761

$$$$
