
 OpenBabel06082022513D

 40 42  0  0  0  0  0  0  0  0999 V2000
    7.9932   11.6452   10.3532 O   0  0  0  0  0  0  0  0  0  0  0  0
    7.5229   10.5533   10.7010 C   0  0  0  0  0  0  0  0  0  0  0  0
    8.3018    9.6806   11.6703 C   0  0  0  0  0  0  0  0  0  0  0  0
    7.6075    9.8483   13.2924 Cl  0  0  0  0  0  0  0  0  0  0  0  0
    6.2921   10.1286   10.2099 N   0  0  0  0  0  0  0  0  0  0  0  0
    5.7552    8.7576   10.2869 C   0  0  0  0  0  0  0  0  0  0  0  0
    5.2918    8.2454    8.8891 C   0  0  0  0  0  0  0  0  0  0  0  0
    6.0857    8.8963    7.7688 N   0  0  0  0  0  0  0  0  0  0  0  0
    7.6354    8.1945    7.6680 S   0  0  0  0  0  0  0  0  0  0  0  0
    7.4372    6.9340    6.9892 O   0  0  0  0  0  0  0  0  0  0  0  0
    8.2183    8.1850    8.9984 O   0  0  0  0  0  0  0  0  0  0  0  0
    8.7750    9.1732    6.7023 C   0  0  0  0  0  0  0  0  0  0  0  0
    9.2583   10.3673    7.2502 C   0  0  0  0  0  0  0  0  0  0  0  0
   10.5606   10.7883    6.9832 C   0  0  0  0  0  0  0  0  0  0  0  0
   11.4242    9.9577    6.2602 C   0  0  0  0  0  0  0  0  0  0  0  0
   10.9144    8.7918    5.6411 C   0  0  0  0  0  0  0  0  0  0  0  0
    9.5641    8.4516    5.7973 C   0  0  0  0  0  0  0  0  0  0  0  0
   11.7949    7.9142    4.9940 C   0  0  0  0  0  0  0  0  0  0  0  0
   13.1697    8.1454    5.0217 C   0  0  0  0  0  0  0  0  0  0  0  0
   13.6738    9.2859    5.6394 C   0  0  0  0  0  0  0  0  0  0  0  0
   12.8044   10.2061    6.2280 C   0  0  0  0  0  0  0  0  0  0  0  0
    5.8807   10.3784    7.7874 C   0  0  0  0  0  0  0  0  0  0  0  0
    5.6384   10.9470    9.1967 C   0  0  0  0  0  0  0  0  0  0  0  0
    9.3406   10.0286   11.6979 H   0  0  0  0  0  0  0  0  0  0  0  0
    8.3236    8.6276   11.3965 H   0  0  0  0  0  0  0  0  0  0  0  0
    4.8925    8.7813   10.9622 H   0  0  0  0  0  0  0  0  0  0  0  0
    6.4725    8.0655   10.7276 H   0  0  0  0  0  0  0  0  0  0  0  0
    4.2347    8.4886    8.7333 H   0  0  0  0  0  0  0  0  0  0  0  0
    5.3617    7.1519    8.8334 H   0  0  0  0  0  0  0  0  0  0  0  0
    8.7004   10.9164    8.0036 H   0  0  0  0  0  0  0  0  0  0  0  0
   10.9334   11.6857    7.4700 H   0  0  0  0  0  0  0  0  0  0  0  0
    9.2013    7.5081    5.3940 H   0  0  0  0  0  0  0  0  0  0  0  0
   11.4244    6.9994    4.5360 H   0  0  0  0  0  0  0  0  0  0  0  0
   13.8486    7.4162    4.5866 H   0  0  0  0  0  0  0  0  0  0  0  0
   14.7472    9.4476    5.6901 H   0  0  0  0  0  0  0  0  0  0  0  0
   13.2195   11.0770    6.7281 H   0  0  0  0  0  0  0  0  0  0  0  0
    4.9945   10.5895    7.1742 H   0  0  0  0  0  0  0  0  0  0  0  0
    6.6887   10.9009    7.2825 H   0  0  0  0  0  0  0  0  0  0  0  0
    5.9572   11.9933    9.2403 H   0  0  0  0  0  0  0  0  0  0  0  0
    4.5653   10.9398    9.4256 H   0  0  0  0  0  0  0  0  0  0  0  0
  1  2  2  0  0  0  0
  2  3  1  0  0  0  0
  2  5  1  0  0  0  0
  3  4  1  0  0  0  0
  3 24  1  0  0  0  0
  3 25  1  0  0  0  0
  5  6  1  0  0  0  0
  5 23  1  0  0  0  0
  6  7  1  0  0  0  0
  6 26  1  0  0  0  0
  6 27  1  0  0  0  0
  7  8  1  0  0  0  0
  7 28  1  0  0  0  0
  7 29  1  0  0  0  0
  8  9  1  0  0  0  0
  8 22  1  0  0  0  0
  9 10  2  0  0  0  0
  9 11  2  0  0  0  0
  9 12  1  0  0  0  0
 12 13  1  0  0  0  0
 12 17  2  0  0  0  0
 13 14  2  0  0  0  0
 13 30  1  0  0  0  0
 14 15  1  0  0  0  0
 14 31  1  0  0  0  0
 15 16  2  0  0  0  0
 15 21  1  0  0  0  0
 16 17  1  0  0  0  0
 16 18  1  0  0  0  0
 17 32  1  0  0  0  0
 18 19  2  0  0  0  0
 18 33  1  0  0  0  0
 19 20  1  0  0  0  0
 19 34  1  0  0  0  0
 20 21  2  0  0  0  0
 20 35  1  0  0  0  0
 21 36  1  0  0  0  0
 22 23  1  0  0  0  0
 22 37  1  0  0  0  0
 22 38  1  0  0  0  0
 23 39  1  0  0  0  0
 23 40  1  0  0  0  0
M  END
>  <name>


>  <Energy>
78.2349

$$$$
