
 OpenBabel06082022513D

 39 40  0  0  0  0  0  0  0  0999 V2000
    6.3530    9.3422    5.2135 C   0  0  0  0  0  0  0  0  0  0  0  0
    6.8901   10.4925    6.0273 C   0  0  0  0  0  0  0  0  0  0  0  0
    6.8829   11.6399    5.5832 O   0  0  0  0  0  0  0  0  0  0  0  0
    7.4078   10.2679    7.4052 C   0  0  0  0  0  0  0  0  0  0  0  0
    8.3242   11.1748    7.9502 C   0  0  0  0  0  0  0  0  0  0  0  0
    8.6596   11.1171    9.3079 C   0  0  0  0  0  0  0  0  0  0  0  0
    8.0012   10.2274   10.1577 C   0  0  0  0  0  0  0  0  0  0  0  0
    7.0649    9.3532    9.6109 C   0  0  0  0  0  0  0  0  0  0  0  0
    6.0459    8.3239   10.6367 S   0  0  0  0  0  0  0  0  0  0  0  0
    5.8770    7.0870    9.9004 O   0  0  0  0  0  0  0  0  0  0  0  0
    6.5910    8.3232   11.9744 O   0  0  0  0  0  0  0  0  0  0  0  0
    4.5268    9.1263   10.7009 N   0  0  0  0  0  0  0  0  0  0  0  0
    3.9790    9.8129    9.4898 C   0  0  0  0  0  0  0  0  0  0  0  0
    3.4455    8.8357    8.4238 C   0  0  0  0  0  0  0  0  0  0  0  0
    2.9801    7.5837    9.0184 N   0  0  0  0  0  0  0  0  0  0  0  0
    3.3217    6.2917    8.6100 C   0  0  0  0  0  0  0  0  0  0  0  0
    2.9220    5.3160    9.2574 O   0  0  0  0  0  0  0  0  0  0  0  0
    4.2271    6.1174    7.3964 C   0  0  0  0  0  0  0  0  0  0  0  0
    3.8505    4.6189    6.5171 Cl  0  0  0  0  0  0  0  0  0  0  0  0
    2.3917    7.7633   10.3442 C   0  0  0  0  0  0  0  0  0  0  0  0
    3.4492    8.2733   11.3578 C   0  0  0  0  0  0  0  0  0  0  0  0
    6.8673    9.2847    8.2269 C   0  0  0  0  0  0  0  0  0  0  0  0
    5.7017    9.7426    4.4281 H   0  0  0  0  0  0  0  0  0  0  0  0
    5.7397    8.6575    5.7987 H   0  0  0  0  0  0  0  0  0  0  0  0
    7.1813    8.8054    4.7486 H   0  0  0  0  0  0  0  0  0  0  0  0
    8.7670   11.9431    7.3185 H   0  0  0  0  0  0  0  0  0  0  0  0
    9.3970   11.8083    9.7111 H   0  0  0  0  0  0  0  0  0  0  0  0
    8.2076   10.2327   11.2255 H   0  0  0  0  0  0  0  0  0  0  0  0
    4.6875   10.5305    9.0682 H   0  0  0  0  0  0  0  0  0  0  0  0
    3.1471   10.4428    9.8361 H   0  0  0  0  0  0  0  0  0  0  0  0
    4.1871    8.6628    7.6535 H   0  0  0  0  0  0  0  0  0  0  0  0
    2.5860    9.2931    7.9195 H   0  0  0  0  0  0  0  0  0  0  0  0
    5.2696    6.0584    7.7186 H   0  0  0  0  0  0  0  0  0  0  0  0
    4.1153    6.9212    6.6700 H   0  0  0  0  0  0  0  0  0  0  0  0
    1.9240    6.8469   10.7170 H   0  0  0  0  0  0  0  0  0  0  0  0
    1.5896    8.5043   10.2379 H   0  0  0  0  0  0  0  0  0  0  0  0
    2.9584    8.8759   12.1310 H   0  0  0  0  0  0  0  0  0  0  0  0
    3.9030    7.4173   11.8687 H   0  0  0  0  0  0  0  0  0  0  0  0
    6.2157    8.5239    7.8323 H   0  0  0  0  0  0  0  0  0  0  0  0
  1  2  1  0  0  0  0
  1 23  1  0  0  0  0
  1 24  1  0  0  0  0
  1 25  1  0  0  0  0
  2  3  2  0  0  0  0
  2  4  1  0  0  0  0
  4  5  1  0  0  0  0
  4 22  2  0  0  0  0
  5  6  2  0  0  0  0
  5 26  1  0  0  0  0
  6  7  1  0  0  0  0
  6 27  1  0  0  0  0
  7  8  2  0  0  0  0
  7 28  1  0  0  0  0
  8  9  1  0  0  0  0
  8 22  1  0  0  0  0
  9 10  2  0  0  0  0
  9 11  2  0  0  0  0
  9 12  1  0  0  0  0
 12 13  1  0  0  0  0
 12 21  1  0  0  0  0
 13 14  1  0  0  0  0
 13 29  1  0  0  0  0
 13 30  1  0  0  0  0
 14 15  1  0  0  0  0
 14 31  1  0  0  0  0
 14 32  1  0  0  0  0
 15 16  1  0  0  0  0
 15 20  1  0  0  0  0
 16 17  2  0  0  0  0
 16 18  1  0  0  0  0
 18 19  1  0  0  0  0
 18 33  1  0  0  0  0
 18 34  1  0  0  0  0
 20 21  1  0  0  0  0
 20 35  1  0  0  0  0
 20 36  1  0  0  0  0
 21 37  1  0  0  0  0
 21 38  1  0  0  0  0
 22 39  1  0  0  0  0
M  END
>  <name>


>  <Energy>
74.6844

$$$$
