
 OpenBabel06082022513D

 41 43  0  0  0  0  0  0  0  0999 V2000
    8.2160    7.5301    5.5170 O   0  0  0  0  0  0  0  0  0  0  0  0
    7.1563    8.1682    5.5686 C   0  0  0  0  0  0  0  0  0  0  0  0
    6.9759    9.4012    4.7046 C   0  0  0  0  0  0  0  0  0  0  0  0
    6.1942    8.9501    3.1825 Cl  0  0  0  0  0  0  0  0  0  0  0  0
    6.1461    7.8067    6.4611 N   0  0  0  0  0  0  0  0  0  0  0  0
    4.9520    8.6159    6.6777 C   0  0  0  0  0  0  0  0  0  0  0  0
    5.1401    9.5932    7.8540 C   0  0  0  0  0  0  0  0  0  0  0  0
    6.5768    9.6725    8.2827 N   0  0  0  0  0  0  0  0  0  0  0  0
    6.9902   10.9877    9.2987 S   0  0  0  0  0  0  0  0  0  0  0  0
    6.5599   12.1981    8.6325 O   0  0  0  0  0  0  0  0  0  0  0  0
    8.3490   10.8083    9.7585 O   0  0  0  0  0  0  0  0  0  0  0  0
    5.8878   10.6967   10.6716 C   0  0  0  0  0  0  0  0  0  0  0  0
    4.6052   11.2858   10.6319 C   0  0  0  0  0  0  0  0  0  0  0  0
    3.5608   10.6965   11.3382 C   0  0  0  0  0  0  0  0  0  0  0  0
    3.8349    9.5340   12.0390 C   0  0  0  0  0  0  0  0  0  0  0  0
    5.1426    9.0488   12.1801 C   0  0  0  0  0  0  0  0  0  0  0  0
    6.2035    9.6563   11.5450 C   0  0  0  0  0  0  0  0  0  0  0  0
    5.1569    7.7776   12.9683 C   0  0  0  0  0  0  0  0  0  0  0  0
    3.7143    7.3101   12.7409 C   0  0  0  0  0  0  0  0  0  0  0  0
    2.8588    8.5853   12.6683 C   0  0  0  0  0  0  0  0  0  0  0  0
    7.1958    8.3313    8.6083 C   0  0  0  0  0  0  0  0  0  0  0  0
    6.6288    7.2120    7.7006 C   0  0  0  0  0  0  0  0  0  0  0  0
    7.9610    9.8282    4.4888 H   0  0  0  0  0  0  0  0  0  0  0  0
    6.3967   10.1802    5.2036 H   0  0  0  0  0  0  0  0  0  0  0  0
    4.1272    7.9286    6.9127 H   0  0  0  0  0  0  0  0  0  0  0  0
    4.6461    9.1405    5.7671 H   0  0  0  0  0  0  0  0  0  0  0  0
    4.5368    9.2316    8.6922 H   0  0  0  0  0  0  0  0  0  0  0  0
    4.7652   10.5785    7.5625 H   0  0  0  0  0  0  0  0  0  0  0  0
    4.4003   12.1183    9.9619 H   0  0  0  0  0  0  0  0  0  0  0  0
    2.5545   11.0785   11.2537 H   0  0  0  0  0  0  0  0  0  0  0  0
    7.2025    9.2395   11.5924 H   0  0  0  0  0  0  0  0  0  0  0  0
    5.3544    7.9849   14.0247 H   0  0  0  0  0  0  0  0  0  0  0  0
    5.8812    7.0522   12.5830 H   0  0  0  0  0  0  0  0  0  0  0  0
    3.3688    6.6096   13.5052 H   0  0  0  0  0  0  0  0  0  0  0  0
    3.6611    6.7870   11.7737 H   0  0  0  0  0  0  0  0  0  0  0  0
    1.9780    8.4298   12.0398 H   0  0  0  0  0  0  0  0  0  0  0  0
    2.5656    8.9361   13.6622 H   0  0  0  0  0  0  0  0  0  0  0  0
    7.0368    8.0455    9.6484 H   0  0  0  0  0  0  0  0  0  0  0  0
    8.2718    8.4152    8.4325 H   0  0  0  0  0  0  0  0  0  0  0  0
    7.3919    6.4449    7.5163 H   0  0  0  0  0  0  0  0  0  0  0  0
    5.7852    6.7129    8.1934 H   0  0  0  0  0  0  0  0  0  0  0  0
  1  2  2  0  0  0  0
  2  3  1  0  0  0  0
  2  5  1  0  0  0  0
  3  4  1  0  0  0  0
  3 23  1  0  0  0  0
  3 24  1  0  0  0  0
  5  6  1  0  0  0  0
  5 22  1  0  0  0  0
  6  7  1  0  0  0  0
  6 25  1  0  0  0  0
  6 26  1  0  0  0  0
  7  8  1  0  0  0  0
  7 27  1  0  0  0  0
  7 28  1  0  0  0  0
  8  9  1  0  0  0  0
  8 21  1  0  0  0  0
  9 10  2  0  0  0  0
  9 11  2  0  0  0  0
  9 12  1  0  0  0  0
 12 13  1  0  0  0  0
 12 17  2  0  0  0  0
 13 14  2  0  0  0  0
 13 29  1  0  0  0  0
 14 15  1  0  0  0  0
 14 30  1  0  0  0  0
 15 16  2  0  0  0  0
 15 20  1  0  0  0  0
 16 17  1  0  0  0  0
 16 18  1  0  0  0  0
 17 31  1  0  0  0  0
 18 19  1  0  0  0  0
 18 32  1  0  0  0  0
 18 33  1  0  0  0  0
 19 20  1  0  0  0  0
 19 34  1  0  0  0  0
 19 35  1  0  0  0  0
 20 36  1  0  0  0  0
 20 37  1  0  0  0  0
 21 22  1  0  0  0  0
 21 38  1  0  0  0  0
 21 39  1  0  0  0  0
 22 40  1  0  0  0  0
 22 41  1  0  0  0  0
M  END
>  <name>


>  <Energy>
64.8278

$$$$
