
 OpenBabel06082022513D

 31 32  0  0  0  0  0  0  0  0999 V2000
    2.9382    7.1604    2.9924 O   0  0  0  0  0  0  0  0  0  0  0  0
    3.4170    6.1327    2.5035 C   0  0  0  0  0  0  0  0  0  0  0  0
    3.9241    6.1434    1.0732 C   0  0  0  0  0  0  0  0  0  0  0  0
    2.5237    5.9054    0.0004 Cl  0  0  0  0  0  0  0  0  0  0  0  0
    3.4409    4.9332    3.2103 N   0  0  0  0  0  0  0  0  0  0  0  0
    4.1736    3.7343    2.7847 C   0  0  0  0  0  0  0  0  0  0  0  0
    4.3764    2.6576    3.8833 C   0  0  0  0  0  0  0  0  0  0  0  0
    4.0928    3.0963    5.2629 N   0  0  0  0  0  0  0  0  0  0  0  0
    5.1499    4.0097    5.7538 C   0  0  0  0  0  0  0  0  0  0  0  0
    4.7178    5.0864    6.6969 C   0  0  0  0  0  0  0  0  0  0  0  0
    4.5605    6.4476    6.5400 C   0  0  0  0  0  0  0  0  0  0  0  0
    4.0504    6.9350    7.7656 C   0  0  0  0  0  0  0  0  0  0  0  0
    3.9594    5.8464    8.5997 C   0  0  0  0  0  0  0  0  0  0  0  0
    4.3742    4.7192    7.9643 O   0  0  0  0  0  0  0  0  0  0  0  0
    2.7260    3.6389    5.2710 C   0  0  0  0  0  0  0  0  0  0  0  0
    2.4678    4.8000    4.2995 C   0  0  0  0  0  0  0  0  0  0  0  0
    4.6546    5.3665    0.8544 H   0  0  0  0  0  0  0  0  0  0  0  0
    4.3757    7.1148    0.8532 H   0  0  0  0  0  0  0  0  0  0  0  0
    5.1610    4.0599    2.4403 H   0  0  0  0  0  0  0  0  0  0  0  0
    3.6434    3.3036    1.9286 H   0  0  0  0  0  0  0  0  0  0  0  0
    5.3886    2.2395    3.8118 H   0  0  0  0  0  0  0  0  0  0  0  0
    3.7148    1.8112    3.6532 H   0  0  0  0  0  0  0  0  0  0  0  0
    5.6740    4.4985    4.9227 H   0  0  0  0  0  0  0  0  0  0  0  0
    5.9047    3.3941    6.2576 H   0  0  0  0  0  0  0  0  0  0  0  0
    4.7464    7.0098    5.6345 H   0  0  0  0  0  0  0  0  0  0  0  0
    3.7732    7.9521    8.0044 H   0  0  0  0  0  0  0  0  0  0  0  0
    3.6248    5.7119    9.6204 H   0  0  0  0  0  0  0  0  0  0  0  0
    2.3992    3.9086    6.2821 H   0  0  0  0  0  0  0  0  0  0  0  0
    2.0463    2.8188    4.9990 H   0  0  0  0  0  0  0  0  0  0  0  0
    1.4895    4.6593    3.8246 H   0  0  0  0  0  0  0  0  0  0  0  0
    2.4104    5.7431    4.8501 H   0  0  0  0  0  0  0  0  0  0  0  0
  1  2  2  0  0  0  0
  2  3  1  0  0  0  0
  2  5  1  0  0  0  0
  3  4  1  0  0  0  0
  3 17  1  0  0  0  0
  3 18  1  0  0  0  0
  5  6  1  0  0  0  0
  5 16  1  0  0  0  0
  6  7  1  0  0  0  0
  6 19  1  0  0  0  0
  6 20  1  0  0  0  0
  7  8  1  0  0  0  0
  7 21  1  0  0  0  0
  7 22  1  0  0  0  0
  8  9  1  0  0  0  0
  8 15  1  0  0  0  0
  9 10  1  0  0  0  0
  9 23  1  0  0  0  0
  9 24  1  0  0  0  0
 10 11  2  0  0  0  0
 10 14  1  0  0  0  0
 11 12  1  0  0  0  0
 11 25  1  0  0  0  0
 12 13  2  0  0  0  0
 12 26  1  0  0  0  0
 13 14  1  0  0  0  0
 13 27  1  0  0  0  0
 15 16  1  0  0  0  0
 15 28  1  0  0  0  0
 15 29  1  0  0  0  0
 16 30  1  0  0  0  0
 16 31  1  0  0  0  0
M  END
>  <name>


>  <Energy>
92.3036

$$$$
