
  xtb     06082023093D
xtb: 6.2.3 (830e466)
 34 35  0     0  0            999 V2000
    9.3972    7.3644   10.7008 O   0  0  0  0  0  0  0  0  0  0  0  0
    9.0982    6.2855   10.2241 C   0  0  0  0  0  0  0  0  0  0  0  0
    8.1367    5.3696   10.9735 C   0  0  0  0  0  0  0  0  0  0  0  0
    8.8888    3.8002   11.3558 Cl  0  0  0  0  0  0  0  0  0  0  0  0
    9.5715    5.8556    9.0401 N   0  0  0  0  0  0  0  0  0  0  0  0
    9.2026    4.6328    8.3582 C   0  0  0  0  0  0  0  0  0  0  0  0
    9.2635    4.8739    6.8316 C   0  0  0  0  0  0  0  0  0  0  0  0
    8.9204    6.2279    6.4673 N   0  0  0  0  0  0  0  0  0  0  0  0
    7.5467    6.5982    6.7749 C   0  0  0  0  0  0  0  0  0  0  0  0
    7.1606    7.8328    6.0035 C   0  0  0  0  0  0  0  0  0  0  0  0
    6.6028    8.9343    6.6365 C   0  0  0  0  0  0  0  0  0  0  0  0
    6.2470   10.0613    5.9159 C   0  0  0  0  0  0  0  0  0  0  0  0
    6.4589   10.0853    4.5480 C   0  0  0  0  0  0  0  0  0  0  0  0
    6.0164   11.4883    3.6388 Cl  0  0  0  0  0  0  0  0  0  0  0  0
    7.0239    8.9985    3.8984 C   0  0  0  0  0  0  0  0  0  0  0  0
    7.3704    7.8792    4.6302 C   0  0  0  0  0  0  0  0  0  0  0  0
    9.9074    7.1619    6.9925 C   0  0  0  0  0  0  0  0  0  0  0  0
   10.5256    6.6747    8.3184 C   0  0  0  0  0  0  0  0  0  0  0  0
    7.2256    5.1740   10.4064 H   0  0  0  0  0  0  0  0  0  0  0  0
    7.8876    5.8502   11.9193 H   0  0  0  0  0  0  0  0  0  0  0  0
    8.1908    4.3419    8.6411 H   0  0  0  0  0  0  0  0  0  0  0  0
    9.8815    3.8185    8.6379 H   0  0  0  0  0  0  0  0  0  0  0  0
    8.5847    4.1826    6.3279 H   0  0  0  0  0  0  0  0  0  0  0  0
   10.2730    4.6857    6.4581 H   0  0  0  0  0  0  0  0  0  0  0  0
    7.3746    6.7716    7.8487 H   0  0  0  0  0  0  0  0  0  0  0  0
    6.9063    5.7689    6.4563 H   0  0  0  0  0  0  0  0  0  0  0  0
    6.4429    8.9181    7.7052 H   0  0  0  0  0  0  0  0  0  0  0  0
    5.8122   10.9149    6.4117 H   0  0  0  0  0  0  0  0  0  0  0  0
    7.1863    9.0323    2.8326 H   0  0  0  0  0  0  0  0  0  0  0  0
    7.8178    7.0284    4.1407 H   0  0  0  0  0  0  0  0  0  0  0  0
    9.4273    8.1313    7.1280 H   0  0  0  0  0  0  0  0  0  0  0  0
   10.7023    7.2793    6.2480 H   0  0  0  0  0  0  0  0  0  0  0  0
   11.4197    6.0720    8.1290 H   0  0  0  0  0  0  0  0  0  0  0  0
   10.7932    7.5168    8.9564 H   0  0  0  0  0  0  0  0  0  0  0  0
  1  2  1  0  0  0  0
  2  3  1  0  0  0  0
  2  5  1  0  0  0  0
  3  4  1  0  0  0  0
  3 19  1  0  0  0  0
  3 20  1  0  0  0  0
  5  6  1  0  0  0  0
  5 18  1  0  0  0  0
  6  7  1  0  0  0  0
  6 21  1  0  0  0  0
  6 22  1  0  0  0  0
  7  8  1  0  0  0  0
  7 23  1  0  0  0  0
  7 24  1  0  0  0  0
  8  9  1  0  0  0  0
  8 17  1  0  0  0  0
  9 10  1  0  0  0  0
  9 25  1  0  0  0  0
  9 26  1  0  0  0  0
 10 11  1  0  0  0  0
 10 16  1  0  0  0  0
 11 12  1  0  0  0  0
 11 27  1  0  0  0  0
 12 13  1  0  0  0  0
 12 28  1  0  0  0  0
 13 14  1  0  0  0  0
 13 15  1  0  0  0  0
 15 16  1  0  0  0  0
 15 29  1  0  0  0  0
 16 30  1  0  0  0  0
 17 18  1  0  0  0  0
 17 31  1  0  0  0  0
 17 32  1  0  0  0  0
 18 33  1  0  0  0  0
 18 34  1  0  0  0  0
M  END
>  <name>


>  <Energy>
129.654

> <total energy / Eh>
    -55.034732941602

> <gradient norm / Eh/a0>
      0.000304501949

$$$$
