
 OpenBabel06082022513D

 36 38  0  0  0  0  0  0  0  0999 V2000
    4.5305   10.7879    4.1606 O   0  0  0  0  0  0  0  0  0  0  0  0
    5.2455   10.1914    4.9482 C   0  0  0  0  0  0  0  0  0  0  0  0
    5.8423    8.8117    4.8273 C   0  0  0  0  0  0  0  0  0  0  0  0
    7.3245    8.9279    3.8676 Cl  0  0  0  0  0  0  0  0  0  0  0  0
    5.6786   10.8848    6.1179 N   0  3  0  0  0  0  0  0  0  0  0  0
    6.7874   11.6573    6.0252 C   0  0  0  0  0  0  0  0  0  0  0  0
    7.4330   12.1147    7.1598 C   0  0  0  0  0  0  0  0  0  0  0  0
    6.9341   11.7699    8.4087 C   0  0  0  0  0  0  0  0  0  0  0  0
    5.7541   11.0283    8.5055 C   0  0  0  0  0  0  0  0  0  0  0  0
    5.2573   10.6074    9.7490 C   0  0  0  0  0  0  0  0  0  0  0  0
    4.1033    9.8202    9.8045 C   0  0  0  0  0  0  0  0  0  0  0  0
    3.6856    8.9172   11.3021 S   0  0  0  0  0  0  0  0  0  0  0  0
    2.7653    7.8806   10.8862 O   0  0  0  0  0  0  0  0  0  0  0  0
    3.3384    9.9174   12.2864 O   0  0  0  0  0  0  0  0  0  0  0  0
    5.1442    8.1769   11.7181 N   0  0  0  0  0  0  0  0  0  0  0  0
    6.0283    8.7570   12.7444 C   0  0  0  0  0  0  0  0  0  0  0  0
    7.4309    8.4514   12.2213 C   0  0  0  0  0  0  0  0  0  0  0  0
    7.1684    7.6443   10.9874 C   0  0  0  0  0  0  0  0  0  0  0  0
    5.8720    7.4939   10.7112 C   0  0  0  0  0  0  0  0  0  0  0  0
    3.3520    9.5758    8.6540 C   0  0  0  0  0  0  0  0  0  0  0  0
    3.8351    9.9939    7.4153 C   0  0  0  0  0  0  0  0  0  0  0  0
    5.0777   10.6477    7.3160 C   0  0  0  0  0  0  0  0  0  0  0  0
    5.1362    8.1342    4.3429 H   0  0  0  0  0  0  0  0  0  0  0  0
    6.1020    8.4079    5.8106 H   0  0  0  0  0  0  0  0  0  0  0  0
    7.1754   11.8555    5.0272 H   0  0  0  0  0  0  0  0  0  0  0  0
    8.3468   12.7010    7.0747 H   0  0  0  0  0  0  0  0  0  0  0  0
    7.4721   12.0871    9.3024 H   0  0  0  0  0  0  0  0  0  0  0  0
    5.8002   10.8326   10.6655 H   0  0  0  0  0  0  0  0  0  0  0  0
    5.8493    8.2483   13.6980 H   0  0  0  0  0  0  0  0  0  0  0  0
    5.8820    9.8310   12.8848 H   0  0  0  0  0  0  0  0  0  0  0  0
    8.0206    7.8899   12.9512 H   0  0  0  0  0  0  0  0  0  0  0  0
    7.9651    9.3746   11.9732 H   0  0  0  0  0  0  0  0  0  0  0  0
    7.9677    7.2408   10.3800 H   0  0  0  0  0  0  0  0  0  0  0  0
    5.4012    6.9905    9.8783 H   0  0  0  0  0  0  0  0  0  0  0  0
    2.4142    9.0211    8.7117 H   0  0  0  0  0  0  0  0  0  0  0  0
    3.2183    9.7829    6.5435 H   0  0  0  0  0  0  0  0  0  0  0  0
  1  2  2  0  0  0  0
  2  3  1  0  0  0  0
  2  5  1  0  0  0  0
  3  4  1  0  0  0  0
  3 23  1  0  0  0  0
  3 24  1  0  0  0  0
  5  6  2  0  0  0  0
  5 22  1  0  0  0  0
  6  7  1  0  0  0  0
  6 25  1  0  0  0  0
  7  8  2  0  0  0  0
  7 26  1  0  0  0  0
  8  9  1  0  0  0  0
  8 27  1  0  0  0  0
  9 10  1  0  0  0  0
  9 22  2  0  0  0  0
 10 11  2  0  0  0  0
 10 28  1  0  0  0  0
 11 12  1  0  0  0  0
 11 20  1  0  0  0  0
 12 13  2  0  0  0  0
 12 14  2  0  0  0  0
 12 15  1  0  0  0  0
 15 16  1  0  0  0  0
 15 19  1  0  0  0  0
 16 17  1  0  0  0  0
 16 29  1  0  0  0  0
 16 30  1  0  0  0  0
 17 18  1  0  0  0  0
 17 31  1  0  0  0  0
 17 32  1  0  0  0  0
 18 19  2  0  0  0  0
 18 33  1  0  0  0  0
 19 34  1  0  0  0  0
 20 21  2  0  0  0  0
 20 35  1  0  0  0  0
 21 22  1  0  0  0  0
 21 36  1  0  0  0  0
M  CHG  1   5   1
M  END
>  <name>


>  <Energy>
92.7072

$$$$
