
  xtb     06082022583D
xtb: 6.2.3 (830e466)
 42 43  0     0  0            999 V2000
    8.0742   13.7835    9.1130 C   0  0  0  0  0  0  0  0  0  0  0  0
    9.4356   13.4061    8.9649 O   0  0  0  0  0  0  0  0  0  0  0  0
    9.7257   12.0732    9.0346 C   0  0  0  0  0  0  0  0  0  0  0  0
   10.5136   11.5428    8.0134 C   0  0  0  0  0  0  0  0  0  0  0  0
   10.8549   10.2040    7.9978 C   0  0  0  0  0  0  0  0  0  0  0  0
   10.3902    9.3802    9.0051 C   0  0  0  0  0  0  0  0  0  0  0  0
   10.7401    7.6199    8.9519 S   0  0  0  0  0  0  0  0  0  0  0  0
   10.6844    7.1066   10.2862 O   0  0  0  0  0  0  0  0  0  0  0  0
   11.9177    7.4215    8.1621 O   0  0  0  0  0  0  0  0  0  0  0  0
    9.4893    6.9076    8.1163 N   0  0  0  0  0  0  0  0  0  0  0  0
    8.2047    6.7906    8.7610 C   0  0  0  0  0  0  0  0  0  0  0  0
    7.2634    7.9311    8.3595 C   0  0  0  0  0  0  0  0  0  0  0  0
    7.1925    8.0191    6.9116 N   0  0  0  0  0  0  0  0  0  0  0  0
    6.0193    7.7679    6.2952 C   0  0  0  0  0  0  0  0  0  0  0  0
    5.0075    7.4853    6.9061 O   0  0  0  0  0  0  0  0  0  0  0  0
    5.9857    7.8676    4.7745 C   0  0  0  0  0  0  0  0  0  0  0  0
    6.3524    9.5295    4.2372 Cl  0  0  0  0  0  0  0  0  0  0  0  0
    8.4842    8.2378    6.2997 C   0  0  0  0  0  0  0  0  0  0  0  0
    9.4287    7.0892    6.6901 C   0  0  0  0  0  0  0  0  0  0  0  0
    9.6547    9.8884   10.0552 C   0  0  0  0  0  0  0  0  0  0  0  0
    9.3324   11.2397   10.0986 C   0  0  0  0  0  0  0  0  0  0  0  0
    8.6206   11.7022   11.1815 O   0  0  0  0  0  0  0  0  0  0  0  0
    9.3409   12.5974   12.0166 C   0  0  0  0  0  0  0  0  0  0  0  0
    8.0742   14.8709    9.1543 H   0  0  0  0  0  0  0  0  0  0  0  0
    7.6196   13.3780   10.0176 H   0  0  0  0  0  0  0  0  0  0  0  0
    7.4960   13.4522    8.2446 H   0  0  0  0  0  0  0  0  0  0  0  0
   10.8420   12.2109    7.2326 H   0  0  0  0  0  0  0  0  0  0  0  0
   11.4750    9.7880    7.2202 H   0  0  0  0  0  0  0  0  0  0  0  0
    8.3847    6.7842    9.8352 H   0  0  0  0  0  0  0  0  0  0  0  0
    7.7587    5.8331    8.4692 H   0  0  0  0  0  0  0  0  0  0  0  0
    7.6289    8.8857    8.7524 H   0  0  0  0  0  0  0  0  0  0  0  0
    6.2551    7.7437    8.7318 H   0  0  0  0  0  0  0  0  0  0  0  0
    4.9718    7.6380    4.4473 H   0  0  0  0  0  0  0  0  0  0  0  0
    6.6948    7.1924    4.2961 H   0  0  0  0  0  0  0  0  0  0  0  0
    8.8843    9.1880    6.6725 H   0  0  0  0  0  0  0  0  0  0  0  0
    8.4054    8.3011    5.2177 H   0  0  0  0  0  0  0  0  0  0  0  0
    9.0719    6.1552    6.2397 H   0  0  0  0  0  0  0  0  0  0  0  0
   10.4457    7.2815    6.3490 H   0  0  0  0  0  0  0  0  0  0  0  0
    9.3530    9.2417   10.8639 H   0  0  0  0  0  0  0  0  0  0  0  0
    8.6367   12.9252   12.7787 H   0  0  0  0  0  0  0  0  0  0  0  0
    9.7166   13.4619   11.4631 H   0  0  0  0  0  0  0  0  0  0  0  0
   10.1824   12.0832   12.4910 H   0  0  0  0  0  0  0  0  0  0  0  0
  1  2  1  0  0  0  0
  1 24  1  0  0  0  0
  1 25  1  0  0  0  0
  1 26  1  0  0  0  0
  2  3  1  0  0  0  0
  3  4  1  0  0  0  0
  3 21  1  0  0  0  0
  4  5  1  0  0  0  0
  4 27  1  0  0  0  0
  5  6  1  0  0  0  0
  5 28  1  0  0  0  0
  6  7  1  0  0  0  0
  6 20  1  0  0  0  0
  7  8  1  0  0  0  0
  7  9  1  0  0  0  0
  7 10  1  0  0  0  0
 10 11  1  0  0  0  0
 10 19  1  0  0  0  0
 11 12  1  0  0  0  0
 11 29  1  0  0  0  0
 11 30  1  0  0  0  0
 12 13  1  0  0  0  0
 12 31  1  0  0  0  0
 12 32  1  0  0  0  0
 13 14  1  0  0  0  0
 13 18  1  0  0  0  0
 14 15  1  0  0  0  0
 14 16  1  0  0  0  0
 16 17  1  0  0  0  0
 16 33  1  0  0  0  0
 16 34  1  0  0  0  0
 18 19  1  0  0  0  0
 18 35  1  0  0  0  0
 18 36  1  0  0  0  0
 19 37  1  0  0  0  0
 19 38  1  0  0  0  0
 20 21  1  0  0  0  0
 20 39  1  0  0  0  0
 21 22  1  0  0  0  0
 22 23  1  0  0  0  0
 23 40  1  0  0  0  0
 23 41  1  0  0  0  0
 23 42  1  0  0  0  0
M  END
>  <name>


>  <Energy>
69.0761

> <total energy / Eh>
    -73.659147073465

> <gradient norm / Eh/a0>
      0.000753808052

$$$$
