
  xtb     06082023133D
xtb: 6.2.3 (830e466)
 36 37  0     0  0            999 V2000
    3.2621   10.4838    5.2237 O   0  0  0  0  0  0  0  0  0  0  0  0
    3.6656   11.2962    6.0223 C   0  0  0  0  0  0  0  0  0  0  0  0
    4.4012   12.5643    5.6177 C   0  0  0  0  0  0  0  0  0  0  0  0
    4.2123   12.8388    3.8772 Cl  0  0  0  0  0  0  0  0  0  0  0  0
    3.4589   11.1479    7.3606 N   0  0  0  0  0  0  0  0  0  0  0  0
    3.9913   12.0029    8.4046 C   0  0  0  0  0  0  0  0  0  0  0  0
    4.3547   11.1506    9.6324 C   0  0  0  0  0  0  0  0  0  0  0  0
    4.9439    9.8941    9.2155 N   0  0  0  0  0  0  0  0  0  0  0  0
    6.4382   10.1201    8.4646 S   0  0  0  0  0  0  0  0  0  0  0  0
    6.3245   10.3788    7.0592 O   0  0  0  0  0  0  0  0  0  0  0  0
    7.1579   11.0634    9.2646 O   0  0  0  0  0  0  0  0  0  0  0  0
    7.1527    8.4899    8.7041 C   0  0  0  0  0  0  0  0  0  0  0  0
    7.3107    8.0310   10.0002 C   0  0  0  0  0  0  0  0  0  0  0  0
    7.8791    6.7862   10.2243 C   0  0  0  0  0  0  0  0  0  0  0  0
    8.2879    6.0124    9.1511 C   0  0  0  0  0  0  0  0  0  0  0  0
    8.1236    6.4940    7.8584 C   0  0  0  0  0  0  0  0  0  0  0  0
    8.5612    5.6812    6.7371 N   0  3  0  0  0  0  0  0  0  0  0  0
    8.4144    6.1368    5.6291 O   0  0  0  0  0  0  0  0  0  0  0  0
    9.0436    4.6015    6.9929 O   0  5  0  0  0  0  0  0  0  0  0  0
    7.5540    7.7391    7.6194 C   0  0  0  0  0  0  0  0  0  0  0  0
    4.0324    9.0544    8.4519 C   0  0  0  0  0  0  0  0  0  0  0  0
    2.9098    9.8916    7.8237 C   0  0  0  0  0  0  0  0  0  0  0  0
    5.4661   12.4263    5.8171 H   0  0  0  0  0  0  0  0  0  0  0  0
    4.0163   13.4447    6.1308 H   0  0  0  0  0  0  0  0  0  0  0  0
    3.2549   12.7699    8.6801 H   0  0  0  0  0  0  0  0  0  0  0  0
    4.9018   12.4910    8.0539 H   0  0  0  0  0  0  0  0  0  0  0  0
    3.4828   10.9305   10.2519 H   0  0  0  0  0  0  0  0  0  0  0  0
    5.0998   11.6697   10.2352 H   0  0  0  0  0  0  0  0  0  0  0  0
    6.9914    8.6624   10.8135 H   0  0  0  0  0  0  0  0  0  0  0  0
    8.0078    6.4209   11.2310 H   0  0  0  0  0  0  0  0  0  0  0  0
    8.7379    5.0412    9.2942 H   0  0  0  0  0  0  0  0  0  0  0  0
    7.4316    8.1148    6.6143 H   0  0  0  0  0  0  0  0  0  0  0  0
    3.6185    8.2867    9.1146 H   0  0  0  0  0  0  0  0  0  0  0  0
    4.6141    8.5687    7.6664 H   0  0  0  0  0  0  0  0  0  0  0  0
    2.4869    9.3770    6.9599 H   0  0  0  0  0  0  0  0  0  0  0  0
    2.1167   10.0918    8.5498 H   0  0  0  0  0  0  0  0  0  0  0  0
  1  2  1  0  0  0  0
  2  3  1  0  0  0  0
  2  5  1  0  0  0  0
  3  4  1  0  0  0  0
  3 23  1  0  0  0  0
  3 24  1  0  0  0  0
  5  6  1  0  0  0  0
  5 22  1  0  0  0  0
  6  7  1  0  0  0  0
  6 25  1  0  0  0  0
  6 26  1  0  0  0  0
  7  8  1  0  0  0  0
  7 27  1  0  0  0  0
  7 28  1  0  0  0  0
  8  9  1  0  0  0  0
  8 21  1  0  0  0  0
  9 10  1  0  0  0  0
  9 11  1  0  0  0  0
  9 12  1  0  0  0  0
 12 13  1  0  0  0  0
 12 20  1  0  0  0  0
 13 14  1  0  0  0  0
 13 29  1  0  0  0  0
 14 15  1  0  0  0  0
 14 30  1  0  0  0  0
 15 16  1  0  0  0  0
 15 31  1  0  0  0  0
 16 17  1  0  0  0  0
 16 20  1  0  0  0  0
 17 18  1  0  0  0  0
 17 19  1  0  0  0  0
 20 32  1  0  0  0  0
 21 22  1  0  0  0  0
 21 33  1  0  0  0  0
 21 34  1  0  0  0  0
 22 35  1  0  0  0  0
 22 36  1  0  0  0  0
M  END
>  <name>


>  <Energy>
96.1675

> <total energy / Eh>
    -69.650582608082

> <gradient norm / Eh/a0>
      0.000648489998

$$$$
