
  xtb     06082023123D
xtb: 6.2.3 (830e466)
 40 42  0     0  0            999 V2000
    8.6626   12.6547   10.0370 O   0  0  0  0  0  0  0  0  0  0  0  0
    8.1887   11.7575   10.7068 C   0  0  0  0  0  0  0  0  0  0  0  0
    8.8838   11.3233   11.9906 C   0  0  0  0  0  0  0  0  0  0  0  0
    7.8211   11.5018   13.4079 Cl  0  0  0  0  0  0  0  0  0  0  0  0
    7.0458   11.1250   10.3737 N   0  0  0  0  0  0  0  0  0  0  0  0
    6.4935    9.9583   11.0360 C   0  0  0  0  0  0  0  0  0  0  0  0
    5.7309    9.1043   10.0137 C   0  0  0  0  0  0  0  0  0  0  0  0
    6.4757    9.1075    8.7768 N   0  0  0  0  0  0  0  0  0  0  0  0
    6.2497    7.8079    7.7322 S   0  0  0  0  0  0  0  0  0  0  0  0
    5.3026    8.1455    6.7064 O   0  0  0  0  0  0  0  0  0  0  0  0
    5.9978    6.6581    8.5498 O   0  0  0  0  0  0  0  0  0  0  0  0
    7.8878    7.7120    7.0316 C   0  0  0  0  0  0  0  0  0  0  0  0
    8.1087    8.1449    5.7198 C   0  0  0  0  0  0  0  0  0  0  0  0
    9.3766    8.1138    5.2088 C   0  0  0  0  0  0  0  0  0  0  0  0
   10.4589    7.6543    5.9916 C   0  0  0  0  0  0  0  0  0  0  0  0
   11.7776    7.6143    5.4915 C   0  0  0  0  0  0  0  0  0  0  0  0
   12.8069    7.1630    6.2695 C   0  0  0  0  0  0  0  0  0  0  0  0
   12.5681    6.7293    7.5837 C   0  0  0  0  0  0  0  0  0  0  0  0
   11.3029    6.7540    8.0996 C   0  0  0  0  0  0  0  0  0  0  0  0
   10.2188    7.2149    7.3229 C   0  0  0  0  0  0  0  0  0  0  0  0
    8.9007    7.2580    7.8228 C   0  0  0  0  0  0  0  0  0  0  0  0
    6.5036   10.3965    8.1104 C   0  0  0  0  0  0  0  0  0  0  0  0
    6.3672   11.5109    9.1540 C   0  0  0  0  0  0  0  0  0  0  0  0
    9.7435   11.9757   12.1439 H   0  0  0  0  0  0  0  0  0  0  0  0
    9.2099   10.2836   11.9452 H   0  0  0  0  0  0  0  0  0  0  0  0
    5.8177   10.2603   11.8444 H   0  0  0  0  0  0  0  0  0  0  0  0
    7.3022    9.3650   11.4642 H   0  0  0  0  0  0  0  0  0  0  0  0
    4.7088    9.4807    9.8705 H   0  0  0  0  0  0  0  0  0  0  0  0
    5.6684    8.0683   10.3462 H   0  0  0  0  0  0  0  0  0  0  0  0
    7.2613    8.4847    5.1458 H   0  0  0  0  0  0  0  0  0  0  0  0
    9.5692    8.4408    4.1976 H   0  0  0  0  0  0  0  0  0  0  0  0
   11.9586    7.9482    4.4802 H   0  0  0  0  0  0  0  0  0  0  0  0
   13.8133    7.1366    5.8791 H   0  0  0  0  0  0  0  0  0  0  0  0
   13.3943    6.3753    8.1820 H   0  0  0  0  0  0  0  0  0  0  0  0
   11.1108    6.4193    9.1083 H   0  0  0  0  0  0  0  0  0  0  0  0
    8.6808    6.9240    8.8248 H   0  0  0  0  0  0  0  0  0  0  0  0
    5.6966   10.4645    7.3690 H   0  0  0  0  0  0  0  0  0  0  0  0
    7.4636   10.4759    7.5916 H   0  0  0  0  0  0  0  0  0  0  0  0
    6.8276   12.4306    8.7912 H   0  0  0  0  0  0  0  0  0  0  0  0
    5.3152   11.7013    9.3829 H   0  0  0  0  0  0  0  0  0  0  0  0
  1  2  1  0  0  0  0
  2  3  1  0  0  0  0
  2  5  1  0  0  0  0
  3  4  1  0  0  0  0
  3 24  1  0  0  0  0
  3 25  1  0  0  0  0
  5  6  1  0  0  0  0
  5 23  1  0  0  0  0
  6  7  1  0  0  0  0
  6 26  1  0  0  0  0
  6 27  1  0  0  0  0
  7  8  1  0  0  0  0
  7 28  1  0  0  0  0
  7 29  1  0  0  0  0
  8  9  1  0  0  0  0
  8 22  1  0  0  0  0
  9 10  1  0  0  0  0
  9 11  1  0  0  0  0
  9 12  1  0  0  0  0
 12 13  1  0  0  0  0
 12 21  1  0  0  0  0
 13 14  1  0  0  0  0
 13 30  1  0  0  0  0
 14 15  1  0  0  0  0
 14 31  1  0  0  0  0
 15 16  1  0  0  0  0
 15 20  1  0  0  0  0
 16 17  1  0  0  0  0
 16 32  1  0  0  0  0
 17 18  1  0  0  0  0
 17 33  1  0  0  0  0
 18 19  1  0  0  0  0
 18 34  1  0  0  0  0
 19 20  1  0  0  0  0
 19 35  1  0  0  0  0
 20 21  1  0  0  0  0
 21 36  1  0  0  0  0
 22 23  1  0  0  0  0
 22 37  1  0  0  0  0
 22 38  1  0  0  0  0
 23 39  1  0  0  0  0
 23 40  1  0  0  0  0
M  END
>  <name>


>  <Energy>
63.8581

> <total energy / Eh>
    -68.792665467889

> <gradient norm / Eh/a0>
      0.000440872543

$$$$
