
  xtb     06082023023D
xtb: 6.2.3 (830e466)
 37 38  0     0  0            999 V2000
    8.9927    6.9500    3.9897 O   0  0  0  0  0  0  0  0  0  0  0  0
    8.5926    8.0893    4.0666 C   0  0  0  0  0  0  0  0  0  0  0  0
    9.4699    9.2928    3.7239 C   0  0  0  0  0  0  0  0  0  0  0  0
   11.0793    8.7359    3.2338 Cl  0  0  0  0  0  0  0  0  0  0  0  0
    7.3174    8.3841    4.4185 N   0  0  0  0  0  0  0  0  0  0  0  0
    6.4786    7.3023    4.9136 C   0  0  0  0  0  0  0  0  0  0  0  0
    5.7056    7.7639    6.1574 C   0  0  0  0  0  0  0  0  0  0  0  0
    6.5221    8.6954    6.8969 N   0  0  0  0  0  0  0  0  0  0  0  0
    6.3069    8.7732    8.5569 S   0  0  0  0  0  0  0  0  0  0  0  0
    5.0930    8.0950    8.9126 O   0  0  0  0  0  0  0  0  0  0  0  0
    6.4736   10.1386    8.9570 O   0  0  0  0  0  0  0  0  0  0  0  0
    7.7138    7.7848    9.1712 C   0  0  0  0  0  0  0  0  0  0  0  0
    8.9041    8.1025    8.3394 C   0  0  0  0  0  0  0  0  0  0  0  0
    9.4182    7.1758    7.4405 C   0  0  0  0  0  0  0  0  0  0  0  0
   10.5129    7.4904    6.6546 C   0  0  0  0  0  0  0  0  0  0  0  0
   11.0951    8.7432    6.7484 C   0  0  0  0  0  0  0  0  0  0  0  0
   10.5781    9.6790    7.6305 C   0  0  0  0  0  0  0  0  0  0  0  0
    9.4908    9.3610    8.4254 C   0  0  0  0  0  0  0  0  0  0  0  0
    6.7985    9.9445    6.2147 C   0  0  0  0  0  0  0  0  0  0  0  0
    6.7861    9.6957    4.6987 C   0  0  0  0  0  0  0  0  0  0  0  0
    9.5997    9.9337    4.5962 H   0  0  0  0  0  0  0  0  0  0  0  0
    9.0561    9.8552    2.8862 H   0  0  0  0  0  0  0  0  0  0  0  0
    7.1434    6.4673    5.1437 H   0  0  0  0  0  0  0  0  0  0  0  0
    5.7794    6.9861    4.1318 H   0  0  0  0  0  0  0  0  0  0  0  0
    5.4903    6.9238    6.8155 H   0  0  0  0  0  0  0  0  0  0  0  0
    4.7453    8.2175    5.8751 H   0  0  0  0  0  0  0  0  0  0  0  0
    7.4075    6.7459    9.0990 H   0  0  0  0  0  0  0  0  0  0  0  0
    7.8318    8.0757   10.2121 H   0  0  0  0  0  0  0  0  0  0  0  0
    8.9670    6.1975    7.3632 H   0  0  0  0  0  0  0  0  0  0  0  0
   10.9018    6.7619    5.9606 H   0  0  0  0  0  0  0  0  0  0  0  0
   11.9485    8.9889    6.1347 H   0  0  0  0  0  0  0  0  0  0  0  0
   11.0282   10.6585    7.7041 H   0  0  0  0  0  0  0  0  0  0  0  0
    9.0812   10.0874    9.1112 H   0  0  0  0  0  0  0  0  0  0  0  0
    7.7833   10.2816    6.5484 H   0  0  0  0  0  0  0  0  0  0  0  0
    6.0657   10.7159    6.4819 H   0  0  0  0  0  0  0  0  0  0  0  0
    5.7579    9.7211    4.3245 H   0  0  0  0  0  0  0  0  0  0  0  0
    7.3503   10.4715    4.1862 H   0  0  0  0  0  0  0  0  0  0  0  0
  1  2  1  0  0  0  0
  2  3  1  0  0  0  0
  2  5  1  0  0  0  0
  3  4  1  0  0  0  0
  3 21  1  0  0  0  0
  3 22  1  0  0  0  0
  5  6  1  0  0  0  0
  5 20  1  0  0  0  0
  6  7  1  0  0  0  0
  6 23  1  0  0  0  0
  6 24  1  0  0  0  0
  7  8  1  0  0  0  0
  7 25  1  0  0  0  0
  7 26  1  0  0  0  0
  8  9  1  0  0  0  0
  8 19  1  0  0  0  0
  9 10  1  0  0  0  0
  9 11  1  0  0  0  0
  9 12  1  0  0  0  0
 12 13  1  0  0  0  0
 12 27  1  0  0  0  0
 12 28  1  0  0  0  0
 13 14  1  0  0  0  0
 13 18  1  0  0  0  0
 14 15  1  0  0  0  0
 14 29  1  0  0  0  0
 15 16  1  0  0  0  0
 15 30  1  0  0  0  0
 16 17  1  0  0  0  0
 16 31  1  0  0  0  0
 17 18  1  0  0  0  0
 17 32  1  0  0  0  0
 18 33  1  0  0  0  0
 19 20  1  0  0  0  0
 19 34  1  0  0  0  0
 19 35  1  0  0  0  0
 20 36  1  0  0  0  0
 20 37  1  0  0  0  0
M  END
>  <name>


>  <Energy>
72.7456

> <total energy / Eh>
    -62.367181929706

> <gradient norm / Eh/a0>
      0.000171664312

$$$$
