
 OpenBabel06082022513D

 40 42  0  0  0  0  0  0  0  0999 V2000
    8.5967   12.1480    9.6746 O   0  0  0  0  0  0  0  0  0  0  0  0
    7.9794   11.4982   10.5229 C   0  0  0  0  0  0  0  0  0  0  0  0
    8.7451   10.7718   11.6122 C   0  0  0  0  0  0  0  0  0  0  0  0
    8.4354   11.5239   13.1853 Cl  0  0  0  0  0  0  0  0  0  0  0  0
    6.5848   11.3807   10.4737 N   0  0  0  0  0  0  0  0  0  0  0  0
    5.8518   10.2926   11.1428 C   0  0  0  0  0  0  0  0  0  0  0  0
    5.5808    9.1207   10.1696 C   0  0  0  0  0  0  0  0  0  0  0  0
    6.4147    9.2949    8.9441 N   0  0  0  0  0  0  0  0  0  0  0  0
    6.6652    7.9221    8.0053 S   0  0  0  0  0  0  0  0  0  0  0  0
    5.7175    7.9475    6.9121 O   0  0  0  0  0  0  0  0  0  0  0  0
    6.7344    6.7744    8.8967 O   0  0  0  0  0  0  0  0  0  0  0  0
    8.3016    8.1572    7.3414 C   0  0  0  0  0  0  0  0  0  0  0  0
    8.4595    8.6132    6.0323 C   0  0  0  0  0  0  0  0  0  0  0  0
    9.6872    8.4373    5.3883 C   0  0  0  0  0  0  0  0  0  0  0  0
   10.7420    7.7658    6.0298 C   0  0  0  0  0  0  0  0  0  0  0  0
   11.9034    7.3952    5.3327 C   0  0  0  0  0  0  0  0  0  0  0  0
   12.9084    6.6581    5.9624 C   0  0  0  0  0  0  0  0  0  0  0  0
   12.7947    6.3359    7.3113 C   0  0  0  0  0  0  0  0  0  0  0  0
   11.6586    6.7175    8.0263 C   0  0  0  0  0  0  0  0  0  0  0  0
   10.6065    7.3925    7.3875 C   0  0  0  0  0  0  0  0  0  0  0  0
    9.3888    7.6216    8.0439 C   0  0  0  0  0  0  0  0  0  0  0  0
    6.0778   10.5624    8.2097 C   0  0  0  0  0  0  0  0  0  0  0  0
    5.9750   11.7502    9.1978 C   0  0  0  0  0  0  0  0  0  0  0  0
    9.8178   10.8468   11.4061 H   0  0  0  0  0  0  0  0  0  0  0  0
    8.4890    9.7065   11.6381 H   0  0  0  0  0  0  0  0  0  0  0  0
    4.8983   10.7027   11.4963 H   0  0  0  0  0  0  0  0  0  0  0  0
    6.3797    9.9300   12.0258 H   0  0  0  0  0  0  0  0  0  0  0  0
    4.5222    9.1008    9.8873 H   0  0  0  0  0  0  0  0  0  0  0  0
    5.8084    8.1851   10.6873 H   0  0  0  0  0  0  0  0  0  0  0  0
    7.6224    9.0355    5.4829 H   0  0  0  0  0  0  0  0  0  0  0  0
    9.7887    8.7544    4.3522 H   0  0  0  0  0  0  0  0  0  0  0  0
   12.0093    7.6298    4.2759 H   0  0  0  0  0  0  0  0  0  0  0  0
   13.7729    6.3236    5.3945 H   0  0  0  0  0  0  0  0  0  0  0  0
   13.5773    5.7624    7.8018 H   0  0  0  0  0  0  0  0  0  0  0  0
   11.5805    6.4375    9.0741 H   0  0  0  0  0  0  0  0  0  0  0  0
    9.2532    7.2768    9.0677 H   0  0  0  0  0  0  0  0  0  0  0  0
    5.1237   10.4537    7.6804 H   0  0  0  0  0  0  0  0  0  0  0  0
    6.8577   10.7761    7.4706 H   0  0  0  0  0  0  0  0  0  0  0  0
    6.4390   12.6453    8.7723 H   0  0  0  0  0  0  0  0  0  0  0  0
    4.9226   11.9961    9.3880 H   0  0  0  0  0  0  0  0  0  0  0  0
  1  2  2  0  0  0  0
  2  3  1  0  0  0  0
  2  5  1  0  0  0  0
  3  4  1  0  0  0  0
  3 24  1  0  0  0  0
  3 25  1  0  0  0  0
  5  6  1  0  0  0  0
  5 23  1  0  0  0  0
  6  7  1  0  0  0  0
  6 26  1  0  0  0  0
  6 27  1  0  0  0  0
  7  8  1  0  0  0  0
  7 28  1  0  0  0  0
  7 29  1  0  0  0  0
  8  9  1  0  0  0  0
  8 22  1  0  0  0  0
  9 10  2  0  0  0  0
  9 11  2  0  0  0  0
  9 12  1  0  0  0  0
 12 13  1  0  0  0  0
 12 21  2  0  0  0  0
 13 14  2  0  0  0  0
 13 30  1  0  0  0  0
 14 15  1  0  0  0  0
 14 31  1  0  0  0  0
 15 16  1  0  0  0  0
 15 20  2  0  0  0  0
 16 17  2  0  0  0  0
 16 32  1  0  0  0  0
 17 18  1  0  0  0  0
 17 33  1  0  0  0  0
 18 19  2  0  0  0  0
 18 34  1  0  0  0  0
 19 20  1  0  0  0  0
 19 35  1  0  0  0  0
 20 21  1  0  0  0  0
 21 36  1  0  0  0  0
 22 23  1  0  0  0  0
 22 37  1  0  0  0  0
 22 38  1  0  0  0  0
 23 39  1  0  0  0  0
 23 40  1  0  0  0  0
M  END
>  <name>


>  <Energy>
63.8581

$$$$
