
  xtb     06082023253D
xtb: 6.2.3 (830e466)
 40 41  0     0  0            999 V2000
   11.3491    6.4888    8.3683 C   0  0  0  0  0  0  0  0  0  0  0  0
    9.8762    6.4606    8.1191 C   0  0  0  0  0  0  0  0  0  0  0  0
    9.3218    7.2547    7.1233 C   0  0  0  0  0  0  0  0  0  0  0  0
    7.9543    7.2848    6.9103 C   0  0  0  0  0  0  0  0  0  0  0  0
    7.1430    6.4952    7.6984 C   0  0  0  0  0  0  0  0  0  0  0  0
    5.3722    6.5359    7.4717 S   0  0  0  0  0  0  0  0  0  0  0  0
    5.0884    6.9792    6.1385 O   0  0  0  0  0  0  0  0  0  0  0  0
    4.8090    5.3064    7.9446 O   0  0  0  0  0  0  0  0  0  0  0  0
    4.7658    7.7299    8.4797 N   0  0  0  0  0  0  0  0  0  0  0  0
    4.9621    9.1065    8.0935 C   0  0  0  0  0  0  0  0  0  0  0  0
    5.7130    9.8813    9.1923 C   0  0  0  0  0  0  0  0  0  0  0  0
    6.6544    9.0090    9.8515 N   0  0  0  0  0  0  0  0  0  0  0  0
    8.0024    9.0228    9.7482 C   0  0  0  0  0  0  0  0  0  0  0  0
    8.7031    8.2287   10.3363 O   0  0  0  0  0  0  0  0  0  0  0  0
    8.5821   10.1297    8.8673 C   0  0  0  0  0  0  0  0  0  0  0  0
   10.3440    9.9726    8.8072 Cl  0  0  0  0  0  0  0  0  0  0  0  0
    6.0263    7.9312   10.6011 C   0  0  0  0  0  0  0  0  0  0  0  0
    4.7340    7.4756    9.8934 C   0  0  0  0  0  0  0  0  0  0  0  0
    7.6750    5.6715    8.6693 C   0  0  0  0  0  0  0  0  0  0  0  0
    9.0427    5.6483    8.8990 C   0  0  0  0  0  0  0  0  0  0  0  0
    9.6077    4.7920    9.9856 C   0  0  0  0  0  0  0  0  0  0  0  0
   11.5400    6.8421    9.3807 H   0  0  0  0  0  0  0  0  0  0  0  0
   11.8483    7.1543    7.6695 H   0  0  0  0  0  0  0  0  0  0  0  0
   11.7792    5.4926    8.2748 H   0  0  0  0  0  0  0  0  0  0  0  0
    9.9700    7.8686    6.5150 H   0  0  0  0  0  0  0  0  0  0  0  0
    7.5129    7.8872    6.1315 H   0  0  0  0  0  0  0  0  0  0  0  0
    3.9890    9.5794    7.9100 H   0  0  0  0  0  0  0  0  0  0  0  0
    5.5145    9.1009    7.1533 H   0  0  0  0  0  0  0  0  0  0  0  0
    4.9984   10.2256    9.9485 H   0  0  0  0  0  0  0  0  0  0  0  0
    6.2065   10.7540    8.7710 H   0  0  0  0  0  0  0  0  0  0  0  0
    8.3618   11.1147    9.2816 H   0  0  0  0  0  0  0  0  0  0  0  0
    8.2128   10.0487    7.8453 H   0  0  0  0  0  0  0  0  0  0  0  0
    5.7978    8.2741   11.6174 H   0  0  0  0  0  0  0  0  0  0  0  0
    6.7575    7.1237   10.6676 H   0  0  0  0  0  0  0  0  0  0  0  0
    4.5848    6.4026   10.0104 H   0  0  0  0  0  0  0  0  0  0  0  0
    3.8654    7.9934   10.3147 H   0  0  0  0  0  0  0  0  0  0  0  0
    7.0036    5.0435    9.2354 H   0  0  0  0  0  0  0  0  0  0  0  0
   10.0381    5.4262   10.7596 H   0  0  0  0  0  0  0  0  0  0  0  0
   10.3961    4.1457    9.6035 H   0  0  0  0  0  0  0  0  0  0  0  0
    8.8330    4.1739   10.4310 H   0  0  0  0  0  0  0  0  0  0  0  0
  1  2  1  0  0  0  0
  1 22  1  0  0  0  0
  1 23  1  0  0  0  0
  1 24  1  0  0  0  0
  2  3  1  0  0  0  0
  2 20  1  0  0  0  0
  3  4  1  0  0  0  0
  3 25  1  0  0  0  0
  4  5  1  0  0  0  0
  4 26  1  0  0  0  0
  5  6  1  0  0  0  0
  5 19  1  0  0  0  0
  6  7  1  0  0  0  0
  6  8  1  0  0  0  0
  6  9  1  0  0  0  0
  9 10  1  0  0  0  0
  9 18  1  0  0  0  0
 10 11  1  0  0  0  0
 10 27  1  0  0  0  0
 10 28  1  0  0  0  0
 11 12  1  0  0  0  0
 11 29  1  0  0  0  0
 11 30  1  0  0  0  0
 12 13  1  0  0  0  0
 12 17  1  0  0  0  0
 13 14  1  0  0  0  0
 13 15  1  0  0  0  0
 15 16  1  0  0  0  0
 15 31  1  0  0  0  0
 15 32  1  0  0  0  0
 17 18  1  0  0  0  0
 17 33  1  0  0  0  0
 17 34  1  0  0  0  0
 18 35  1  0  0  0  0
 18 36  1  0  0  0  0
 19 20  1  0  0  0  0
 19 37  1  0  0  0  0
 20 21  1  0  0  0  0
 21 38  1  0  0  0  0
 21 39  1  0  0  0  0
 21 40  1  0  0  0  0
M  END
>  <name>


>  <Energy>
56.155

> <total energy / Eh>
    -65.546877728271

> <gradient norm / Eh/a0>
      0.000281132813

$$$$
