
  xtb     06082023003D
xtb: 6.2.3 (830e466)
 40 41  0     0  0            999 V2000
    6.9988   10.1004   10.3132 C   0  0  0  0  0  0  0  0  0  0  0  0
    6.3127    8.8815    9.7744 C   0  0  0  0  0  0  0  0  0  0  0  0
    5.3711    8.9983    8.7589 C   0  0  0  0  0  0  0  0  0  0  0  0
    4.7340    7.8811    8.2500 C   0  0  0  0  0  0  0  0  0  0  0  0
    5.0184    6.6181    8.7494 C   0  0  0  0  0  0  0  0  0  0  0  0
    4.3744    5.3733    8.1973 C   0  0  0  0  0  0  0  0  0  0  0  0
    5.3933    4.5459    7.5813 N   0  0  0  0  0  0  0  0  0  0  0  0
    5.8497    5.0942    6.3222 C   0  0  0  0  0  0  0  0  0  0  0  0
    6.9872    4.2757    5.7151 C   0  0  0  0  0  0  0  0  0  0  0  0
    8.0867    3.9714    6.7338 C   0  0  0  0  0  0  0  0  0  0  0  0
    7.5780    3.2904    7.9066 N   0  0  0  0  0  0  0  0  0  0  0  0
    7.9093    3.5690    9.1809 C   0  0  0  0  0  0  0  0  0  0  0  0
    7.3820    3.0253   10.1342 O   0  0  0  0  0  0  0  0  0  0  0  0
    9.0079    4.5974    9.4290 C   0  0  0  0  0  0  0  0  0  0  0  0
   10.5528    4.1187    8.6808 Cl  0  0  0  0  0  0  0  0  0  0  0  0
    6.4886    2.3610    7.6922 C   0  0  0  0  0  0  0  0  0  0  0  0
    5.1412    3.1236    7.5442 C   0  0  0  0  0  0  0  0  0  0  0  0
    5.9566    6.4974    9.7665 C   0  0  0  0  0  0  0  0  0  0  0  0
    6.5962    7.6151   10.2697 C   0  0  0  0  0  0  0  0  0  0  0  0
    7.5736   10.5913    9.5282 H   0  0  0  0  0  0  0  0  0  0  0  0
    7.6727    9.8409   11.1256 H   0  0  0  0  0  0  0  0  0  0  0  0
    6.2661   10.8160   10.6839 H   0  0  0  0  0  0  0  0  0  0  0  0
    5.1375    9.9762    8.3617 H   0  0  0  0  0  0  0  0  0  0  0  0
    4.0060    7.9931    7.4581 H   0  0  0  0  0  0  0  0  0  0  0  0
    3.5700    5.6399    7.4880 H   0  0  0  0  0  0  0  0  0  0  0  0
    3.9306    4.8113    9.0226 H   0  0  0  0  0  0  0  0  0  0  0  0
    6.1954    6.1133    6.5215 H   0  0  0  0  0  0  0  0  0  0  0  0
    5.0255    5.1565    5.5839 H   0  0  0  0  0  0  0  0  0  0  0  0
    7.4303    4.8440    4.8953 H   0  0  0  0  0  0  0  0  0  0  0  0
    6.5957    3.3509    5.2919 H   0  0  0  0  0  0  0  0  0  0  0  0
    8.5514    4.9109    7.0277 H   0  0  0  0  0  0  0  0  0  0  0  0
    8.8534    3.3457    6.2577 H   0  0  0  0  0  0  0  0  0  0  0  0
    9.1750    4.6518   10.5049 H   0  0  0  0  0  0  0  0  0  0  0  0
    8.7329    5.5818    9.0475 H   0  0  0  0  0  0  0  0  0  0  0  0
    6.4504    1.7086    8.5656 H   0  0  0  0  0  0  0  0  0  0  0  0
    6.7111    1.7560    6.8115 H   0  0  0  0  0  0  0  0  0  0  0  0
    4.6251    2.8107    6.6214 H   0  0  0  0  0  0  0  0  0  0  0  0
    4.4998    2.8682    8.3879 H   0  0  0  0  0  0  0  0  0  0  0  0
    6.1816    5.5177   10.1604 H   0  0  0  0  0  0  0  0  0  0  0  0
    7.3219    7.5026   11.0631 H   0  0  0  0  0  0  0  0  0  0  0  0
  1  2  1  0  0  0  0
  1 20  1  0  0  0  0
  1 21  1  0  0  0  0
  1 22  1  0  0  0  0
  2  3  1  0  0  0  0
  2 19  1  0  0  0  0
  3  4  1  0  0  0  0
  3 23  1  0  0  0  0
  4  5  1  0  0  0  0
  4 24  1  0  0  0  0
  5  6  1  0  0  0  0
  5 18  1  0  0  0  0
  6  7  1  0  0  0  0
  6 25  1  0  0  0  0
  6 26  1  0  0  0  0
  7  8  1  0  0  0  0
  7 17  1  0  0  0  0
  8  9  1  0  0  0  0
  8 27  1  0  0  0  0
  8 28  1  0  0  0  0
  9 10  1  0  0  0  0
  9 29  1  0  0  0  0
  9 30  1  0  0  0  0
 10 11  1  0  0  0  0
 10 31  1  0  0  0  0
 10 32  1  0  0  0  0
 11 12  1  0  0  0  0
 11 16  1  0  0  0  0
 12 13  1  0  0  0  0
 12 14  1  0  0  0  0
 14 15  1  0  0  0  0
 14 33  1  0  0  0  0
 14 34  1  0  0  0  0
 16 17  1  0  0  0  0
 16 35  1  0  0  0  0
 16 36  1  0  0  0  0
 17 37  1  0  0  0  0
 17 38  1  0  0  0  0
 18 19  1  0  0  0  0
 18 39  1  0  0  0  0
 19 40  1  0  0  0  0
M  END
>  <name>


>  <Energy>
76.0236

> <total energy / Eh>
    -57.315817810315

> <gradient norm / Eh/a0>
      0.000340294270

$$$$
