
 OpenBabel06082022513D

 34 35  0  0  0  0  0  0  0  0999 V2000
   10.4062    8.5715    9.5946 O   0  0  0  0  0  0  0  0  0  0  0  0
    9.2631    8.1666    9.8204 C   0  0  0  0  0  0  0  0  0  0  0  0
    8.2439    9.0753   10.4780 C   0  0  0  0  0  0  0  0  0  0  0  0
    7.0603    9.5812    9.2424 Cl  0  0  0  0  0  0  0  0  0  0  0  0
    8.8480    6.9072    9.4173 N   0  0  0  0  0  0  0  0  0  0  0  0
    9.5135    6.3068    8.2576 C   0  0  0  0  0  0  0  0  0  0  0  0
    8.4678    5.7161    7.2996 C   0  0  0  0  0  0  0  0  0  0  0  0
    7.6942    4.6521    7.9793 N   0  0  0  0  0  0  0  0  0  0  0  0
    6.5417    3.7860    7.1119 S   0  0  0  0  0  0  0  0  0  0  0  0
    6.6466    2.4090    7.5576 O   0  0  0  0  0  0  0  0  0  0  0  0
    6.6385    4.1403    5.7162 O   0  0  0  0  0  0  0  0  0  0  0  0
    4.9989    4.4176    7.7251 C   0  0  0  0  0  0  0  0  0  0  0  0
    4.7419    5.7913    7.6928 C   0  0  0  0  0  0  0  0  0  0  0  0
    3.6014    6.2869    8.3251 C   0  0  0  0  0  0  0  0  0  0  0  0
    2.7204    5.4128    8.9668 C   0  0  0  0  0  0  0  0  0  0  0  0
    2.9624    4.0391    8.9635 C   0  0  0  0  0  0  0  0  0  0  0  0
    4.1042    3.5368    8.3446 C   0  0  0  0  0  0  0  0  0  0  0  0
    7.6292    4.7149    9.4613 C   0  0  0  0  0  0  0  0  0  0  0  0
    7.6830    6.1804    9.9454 C   0  0  0  0  0  0  0  0  0  0  0  0
    8.7439    9.9773   10.8419 H   0  0  0  0  0  0  0  0  0  0  0  0
    7.7257    8.5907   11.3060 H   0  0  0  0  0  0  0  0  0  0  0  0
   10.1882    5.5283    8.6313 H   0  0  0  0  0  0  0  0  0  0  0  0
   10.1142    7.0541    7.7307 H   0  0  0  0  0  0  0  0  0  0  0  0
    8.9795    5.2979    6.4274 H   0  0  0  0  0  0  0  0  0  0  0  0
    7.7869    6.5066    6.9664 H   0  0  0  0  0  0  0  0  0  0  0  0
    5.4255    6.4768    7.1999 H   0  0  0  0  0  0  0  0  0  0  0  0
    3.4016    7.3566    8.3279 H   0  0  0  0  0  0  0  0  0  0  0  0
    1.8366    5.8042    9.4670 H   0  0  0  0  0  0  0  0  0  0  0  0
    2.2693    3.3608    9.4573 H   0  0  0  0  0  0  0  0  0  0  0  0
    4.2978    2.4675    8.3625 H   0  0  0  0  0  0  0  0  0  0  0  0
    8.4811    4.1523    9.8618 H   0  0  0  0  0  0  0  0  0  0  0  0
    6.7242    4.2376    9.8486 H   0  0  0  0  0  0  0  0  0  0  0  0
    6.7850    6.7106    9.6153 H   0  0  0  0  0  0  0  0  0  0  0  0
    7.7112    6.2239   11.0393 H   0  0  0  0  0  0  0  0  0  0  0  0
  1  2  2  0  0  0  0
  2  3  1  0  0  0  0
  2  5  1  0  0  0  0
  3  4  1  0  0  0  0
  3 20  1  0  0  0  0
  3 21  1  0  0  0  0
  5  6  1  0  0  0  0
  5 19  1  0  0  0  0
  6  7  1  0  0  0  0
  6 22  1  0  0  0  0
  6 23  1  0  0  0  0
  7  8  1  0  0  0  0
  7 24  1  0  0  0  0
  7 25  1  0  0  0  0
  8  9  1  0  0  0  0
  8 18  1  0  0  0  0
  9 10  2  0  0  0  0
  9 11  2  0  0  0  0
  9 12  1  0  0  0  0
 12 13  1  0  0  0  0
 12 17  2  0  0  0  0
 13 14  2  0  0  0  0
 13 26  1  0  0  0  0
 14 15  1  0  0  0  0
 14 27  1  0  0  0  0
 15 16  2  0  0  0  0
 15 28  1  0  0  0  0
 16 17  1  0  0  0  0
 16 29  1  0  0  0  0
 17 30  1  0  0  0  0
 18 19  1  0  0  0  0
 18 31  1  0  0  0  0
 18 32  1  0  0  0  0
 19 33  1  0  0  0  0
 19 34  1  0  0  0  0
M  END
>  <name>


>  <Energy>
47.6039

$$$$
