
  xtb     06082022553D
xtb: 6.2.3 (830e466)
 38 40  0     0  0            999 V2000
    8.6954    8.6103   10.8707 O   0  0  0  0  0  0  0  0  0  0  0  0
    9.3579    8.3412    9.8850 C   0  0  0  0  0  0  0  0  0  0  0  0
   10.2736    7.1238    9.8966 C   0  0  0  0  0  0  0  0  0  0  0  0
   11.9865    7.6230    9.8814 Cl  0  0  0  0  0  0  0  0  0  0  0  0
    9.3202    9.0838    8.7660 N   0  0  0  0  0  0  0  0  0  0  0  0
    8.4261   10.2269    8.7168 C   0  0  0  0  0  0  0  0  0  0  0  0
    7.8502   10.3810    7.2920 C   0  0  0  0  0  0  0  0  0  0  0  0
    7.7678    9.1523    6.5427 N   0  0  0  0  0  0  0  0  0  0  0  0
    6.6278    8.2866    6.7981 C   0  0  0  0  0  0  0  0  0  0  0  0
    6.6102    7.5670    8.1266 C   0  0  0  0  0  0  0  0  0  0  0  0
    7.2322    6.3422    8.2900 C   0  0  0  0  0  0  0  0  0  0  0  0
    7.2676    5.7238    9.5335 C   0  0  0  0  0  0  0  0  0  0  0  0
    6.6734    6.3224   10.6250 C   0  0  0  0  0  0  0  0  0  0  0  0
    6.0077    7.5418   10.4651 C   0  0  0  0  0  0  0  0  0  0  0  0
    5.9778    8.1467    9.2260 C   0  0  0  0  0  0  0  0  0  0  0  0
    5.3706    8.1665   11.5111 O   0  0  0  0  0  0  0  0  0  0  0  0
    5.5901    7.5703   12.7321 C   0  0  0  0  0  0  0  0  0  0  0  0
    6.2304    6.4229   12.8872 C   0  0  0  0  0  0  0  0  0  0  0  0
    6.7531    5.6884   11.8454 O   0  0  0  0  0  0  0  0  0  0  0  0
    9.0608    8.5072    6.4028 C   0  0  0  0  0  0  0  0  0  0  0  0
   10.0427    8.8719    7.5370 C   0  0  0  0  0  0  0  0  0  0  0  0
   10.1042    6.4668    9.0452 H   0  0  0  0  0  0  0  0  0  0  0  0
   10.1028    6.5848   10.8278 H   0  0  0  0  0  0  0  0  0  0  0  0
    8.9724   11.1355    8.9985 H   0  0  0  0  0  0  0  0  0  0  0  0
    7.6442   10.0555    9.4570 H   0  0  0  0  0  0  0  0  0  0  0  0
    8.4890   11.0580    6.7137 H   0  0  0  0  0  0  0  0  0  0  0  0
    6.8570   10.8284    7.3465 H   0  0  0  0  0  0  0  0  0  0  0  0
    6.6039    7.5536    5.9858 H   0  0  0  0  0  0  0  0  0  0  0  0
    5.7359    8.9125    6.7118 H   0  0  0  0  0  0  0  0  0  0  0  0
    7.6871    5.8438    7.4463 H   0  0  0  0  0  0  0  0  0  0  0  0
    7.7545    4.7709    9.6688 H   0  0  0  0  0  0  0  0  0  0  0  0
    5.4479    9.0819    9.1284 H   0  0  0  0  0  0  0  0  0  0  0  0
    5.1861    8.1444   13.5464 H   0  0  0  0  0  0  0  0  0  0  0  0
    6.4048    5.9592   13.8412 H   0  0  0  0  0  0  0  0  0  0  0  0
    9.5057    8.8185    5.4475 H   0  0  0  0  0  0  0  0  0  0  0  0
    8.9190    7.4274    6.3688 H   0  0  0  0  0  0  0  0  0  0  0  0
   10.7964    8.0972    7.6467 H   0  0  0  0  0  0  0  0  0  0  0  0
   10.5592    9.8069    7.2919 H   0  0  0  0  0  0  0  0  0  0  0  0
  1  2  1  0  0  0  0
  2  3  1  0  0  0  0
  2  5  1  0  0  0  0
  3  4  1  0  0  0  0
  3 22  1  0  0  0  0
  3 23  1  0  0  0  0
  5  6  1  0  0  0  0
  5 21  1  0  0  0  0
  6  7  1  0  0  0  0
  6 24  1  0  0  0  0
  6 25  1  0  0  0  0
  7  8  1  0  0  0  0
  7 26  1  0  0  0  0
  7 27  1  0  0  0  0
  8  9  1  0  0  0  0
  8 20  1  0  0  0  0
  9 10  1  0  0  0  0
  9 28  1  0  0  0  0
  9 29  1  0  0  0  0
 10 11  1  0  0  0  0
 10 15  1  0  0  0  0
 11 12  1  0  0  0  0
 11 30  1  0  0  0  0
 12 13  1  0  0  0  0
 12 31  1  0  0  0  0
 13 14  1  0  0  0  0
 13 19  1  0  0  0  0
 14 15  1  0  0  0  0
 14 16  1  0  0  0  0
 15 32  1  0  0  0  0
 16 17  1  0  0  0  0
 17 18  1  0  0  0  0
 17 33  1  0  0  0  0
 18 19  1  0  0  0  0
 18 34  1  0  0  0  0
 20 21  1  0  0  0  0
 20 35  1  0  0  0  0
 20 36  1  0  0  0  0
 21 37  1  0  0  0  0
 21 38  1  0  0  0  0
M  END
>  <name>


>  <Energy>
354.41

> <total energy / Eh>
    -63.400626247420

> <gradient norm / Eh/a0>
      0.000919126275

$$$$
