
  xtb     06082022593D
xtb: 6.2.3 (830e466)
 38 40  0     0  0            999 V2000
    7.7912   11.8785   11.1795 O   0  0  0  0  0  0  0  0  0  0  0  0
    7.1125   10.8720   11.2290 C   0  0  0  0  0  0  0  0  0  0  0  0
    7.2238    9.9309   12.4142 C   0  0  0  0  0  0  0  0  0  0  0  0
    5.6658    9.7059   13.2364 Cl  0  0  0  0  0  0  0  0  0  0  0  0
    6.2109   10.5660   10.2677 N   0  0  0  0  0  0  0  0  0  0  0  0
    5.4634    9.3289   10.1543 C   0  0  0  0  0  0  0  0  0  0  0  0
    5.4029    8.8990    8.6777 C   0  0  0  0  0  0  0  0  0  0  0  0
    6.6439    9.2175    8.0028 N   0  0  0  0  0  0  0  0  0  0  0  0
    7.9377    8.2932    8.5729 S   0  0  0  0  0  0  0  0  0  0  0  0
    7.4664    6.9426    8.6373 O   0  0  0  0  0  0  0  0  0  0  0  0
    8.5276    8.8418    9.7643 O   0  0  0  0  0  0  0  0  0  0  0  0
    9.0846    8.4797    7.2176 C   0  0  0  0  0  0  0  0  0  0  0  0
   10.3478    8.9794    7.4337 C   0  0  0  0  0  0  0  0  0  0  0  0
   11.2219    9.0993    6.3599 C   0  0  0  0  0  0  0  0  0  0  0  0
   10.8193    8.7211    5.0914 C   0  0  0  0  0  0  0  0  0  0  0  0
    9.5259    8.2153    4.8838 C   0  0  0  0  0  0  0  0  0  0  0  0
    8.6617    8.0943    5.9539 C   0  0  0  0  0  0  0  0  0  0  0  0
    9.0852    7.8348    3.6384 O   0  0  0  0  0  0  0  0  0  0  0  0
   10.0227    7.9734    2.6369 C   0  0  0  0  0  0  0  0  0  0  0  0
   11.2428    8.4461    2.8328 C   0  0  0  0  0  0  0  0  0  0  0  0
   11.7165    8.8563    4.0618 O   0  0  0  0  0  0  0  0  0  0  0  0
    6.9227   10.6429    7.9506 C   0  0  0  0  0  0  0  0  0  0  0  0
    6.1906   11.3871    9.0768 C   0  0  0  0  0  0  0  0  0  0  0  0
    7.9127   10.3734   13.1334 H   0  0  0  0  0  0  0  0  0  0  0  0
    7.5963    8.9582   12.0905 H   0  0  0  0  0  0  0  0  0  0  0  0
    4.4511    9.4623   10.5556 H   0  0  0  0  0  0  0  0  0  0  0  0
    5.9638    8.5417   10.7177 H   0  0  0  0  0  0  0  0  0  0  0  0
    4.5879    9.3910    8.1418 H   0  0  0  0  0  0  0  0  0  0  0  0
    5.2725    7.8191    8.6112 H   0  0  0  0  0  0  0  0  0  0  0  0
   10.6386    9.2674    8.4308 H   0  0  0  0  0  0  0  0  0  0  0  0
   12.2204    9.4833    6.4900 H   0  0  0  0  0  0  0  0  0  0  0  0
    7.6704    7.6997    5.8116 H   0  0  0  0  0  0  0  0  0  0  0  0
    9.6485    7.6525    1.6818 H   0  0  0  0  0  0  0  0  0  0  0  0
   11.9778    8.5549    2.0563 H   0  0  0  0  0  0  0  0  0  0  0  0
    6.6191   11.0291    6.9713 H   0  0  0  0  0  0  0  0  0  0  0  0
    8.0014   10.7689    8.0613 H   0  0  0  0  0  0  0  0  0  0  0  0
    6.6957   12.3256    9.3073 H   0  0  0  0  0  0  0  0  0  0  0  0
    5.1514   11.5891    8.8027 H   0  0  0  0  0  0  0  0  0  0  0  0
  1  2  1  0  0  0  0
  2  3  1  0  0  0  0
  2  5  1  0  0  0  0
  3  4  1  0  0  0  0
  3 24  1  0  0  0  0
  3 25  1  0  0  0  0
  5  6  1  0  0  0  0
  5 23  1  0  0  0  0
  6  7  1  0  0  0  0
  6 26  1  0  0  0  0
  6 27  1  0  0  0  0
  7  8  1  0  0  0  0
  7 28  1  0  0  0  0
  7 29  1  0  0  0  0
  8  9  1  0  0  0  0
  8 22  1  0  0  0  0
  9 10  1  0  0  0  0
  9 11  1  0  0  0  0
  9 12  1  0  0  0  0
 12 13  1  0  0  0  0
 12 17  1  0  0  0  0
 13 14  1  0  0  0  0
 13 30  1  0  0  0  0
 14 15  1  0  0  0  0
 14 31  1  0  0  0  0
 15 16  1  0  0  0  0
 15 21  1  0  0  0  0
 16 17  1  0  0  0  0
 16 18  1  0  0  0  0
 17 32  1  0  0  0  0
 18 19  1  0  0  0  0
 19 20  1  0  0  0  0
 19 33  1  0  0  0  0
 20 21  1  0  0  0  0
 20 34  1  0  0  0  0
 22 23  1  0  0  0  0
 22 35  1  0  0  0  0
 22 36  1  0  0  0  0
 23 37  1  0  0  0  0
 23 38  1  0  0  0  0
M  END
>  <name>


>  <Energy>
291.469

> <total energy / Eh>
    -71.616095758550

> <gradient norm / Eh/a0>
      0.000606995335

$$$$
