
  xtb     06082022543D
xtb: 6.2.3 (830e466)
 36 38  0     0  0            999 V2000
    9.9254    5.1171    3.8662 O   0  0  0  0  0  0  0  0  0  0  0  0
    9.3183    6.1691    3.9308 C   0  0  0  0  0  0  0  0  0  0  0  0
    9.9568    7.4536    3.4137 C   0  0  0  0  0  0  0  0  0  0  0  0
   10.4589    8.4868    4.7762 Cl  0  0  0  0  0  0  0  0  0  0  0  0
    8.0750    6.2682    4.4363 N   0  0  0  0  0  0  0  0  0  0  0  0
    7.2847    7.4816    4.5137 C   0  0  0  0  0  0  0  0  0  0  0  0
    6.2330    7.3292    5.6335 C   0  0  0  0  0  0  0  0  0  0  0  0
    6.7385    6.6028    6.7758 N   0  0  0  0  0  0  0  0  0  0  0  0
    7.8287    7.2833    7.4684 C   0  0  0  0  0  0  0  0  0  0  0  0
    7.4018    8.6486    7.9356 C   0  0  0  0  0  0  0  0  0  0  0  0
    6.2356    8.7778    8.6799 C   0  0  0  0  0  0  0  0  0  0  0  0
    5.7814   10.0084    9.1449 C   0  0  0  0  0  0  0  0  0  0  0  0
    6.5556   11.1091    8.8400 C   0  0  0  0  0  0  0  0  0  0  0  0
    7.7373   10.9871    8.0897 C   0  0  0  0  0  0  0  0  0  0  0  0
    8.1776    9.7674    7.6204 C   0  0  0  0  0  0  0  0  0  0  0  0
    8.2849   12.2163    7.9499 O   0  0  0  0  0  0  0  0  0  0  0  0
    7.4958   13.0705    8.6863 C   0  0  0  0  0  0  0  0  0  0  0  0
    6.3825   12.4130    9.1585 O   0  0  0  0  0  0  0  0  0  0  0  0
    7.0466    5.2270    6.4068 C   0  0  0  0  0  0  0  0  0  0  0  0
    7.4080    5.0750    4.9168 C   0  0  0  0  0  0  0  0  0  0  0  0
    9.2825    8.0337    2.7851 H   0  0  0  0  0  0  0  0  0  0  0  0
   10.8611    7.1881    2.8668 H   0  0  0  0  0  0  0  0  0  0  0  0
    6.7818    7.6722    3.5560 H   0  0  0  0  0  0  0  0  0  0  0  0
    7.9277    8.3304    4.7471 H   0  0  0  0  0  0  0  0  0  0  0  0
    5.3577    6.7884    5.2657 H   0  0  0  0  0  0  0  0  0  0  0  0
    5.9084    8.3194    5.9570 H   0  0  0  0  0  0  0  0  0  0  0  0
    8.7392    7.3700    6.8584 H   0  0  0  0  0  0  0  0  0  0  0  0
    8.0711    6.6752    8.3464 H   0  0  0  0  0  0  0  0  0  0  0  0
    5.6648    7.8879    8.8919 H   0  0  0  0  0  0  0  0  0  0  0  0
    4.8760   10.1039    9.7195 H   0  0  0  0  0  0  0  0  0  0  0  0
    9.0844    9.6876    7.0442 H   0  0  0  0  0  0  0  0  0  0  0  0
    7.3468   14.0614    8.2907 H   0  0  0  0  0  0  0  0  0  0  0  0
    6.1673    4.6079    6.6203 H   0  0  0  0  0  0  0  0  0  0  0  0
    7.8695    4.8696    7.0265 H   0  0  0  0  0  0  0  0  0  0  0  0
    8.0842    4.2335    4.7643 H   0  0  0  0  0  0  0  0  0  0  0  0
    6.5054    4.9156    4.3171 H   0  0  0  0  0  0  0  0  0  0  0  0
  1  2  1  0  0  0  0
  2  3  1  0  0  0  0
  2  5  1  0  0  0  0
  3  4  1  0  0  0  0
  3 21  1  0  0  0  0
  3 22  1  0  0  0  0
  5  6  1  0  0  0  0
  5 20  1  0  0  0  0
  6  7  1  0  0  0  0
  6 23  1  0  0  0  0
  6 24  1  0  0  0  0
  7  8  1  0  0  0  0
  7 25  1  0  0  0  0
  7 26  1  0  0  0  0
  8  9  1  0  0  0  0
  8 19  1  0  0  0  0
  9 10  1  0  0  0  0
  9 27  1  0  0  0  0
  9 28  1  0  0  0  0
 10 11  1  0  0  0  0
 10 15  1  0  0  0  0
 11 12  1  0  0  0  0
 11 29  1  0  0  0  0
 12 13  1  0  0  0  0
 12 30  1  0  0  0  0
 13 14  1  0  0  0  0
 13 18  1  0  0  0  0
 14 15  1  0  0  0  0
 14 16  1  0  0  0  0
 15 31  1  0  0  0  0
 16 17  1  0  0  0  0
 17 18  1  0  0  0  0
 17 32  1  0  0  0  0
 19 20  1  0  0  0  0
 19 33  1  0  0  0  0
 19 34  1  0  0  0  0
 20 35  1  0  0  0  0
 20 36  1  0  0  0  0
M  END
>  <name>


>  <Energy>
133.103

> <total energy / Eh>
    -60.710948540660

> <gradient norm / Eh/a0>
      0.000588549130

$$$$
