
  xtb     06082022553D
xtb: 6.2.3 (830e466)
 29 30  0     0  0            999 V2000
   10.0317    7.7627   10.2836 C   0  0  0  0  0  0  0  0  0  0  0  0
    9.1610    7.5178    9.0918 C   0  0  0  0  0  0  0  0  0  0  0  0
    9.2128    8.3415    7.9740 C   0  0  0  0  0  0  0  0  0  0  0  0
    8.3938    8.1114    6.8816 C   0  0  0  0  0  0  0  0  0  0  0  0
    7.5111    7.0476    6.8805 C   0  0  0  0  0  0  0  0  0  0  0  0
    7.4701    6.2097    7.9872 C   0  0  0  0  0  0  0  0  0  0  0  0
    6.5565    5.1298    7.9872 N   0  0  0  0  0  0  0  0  0  0  0  0
    6.8080    3.8388    8.1781 C   0  0  0  0  0  0  0  0  0  0  0  0
    5.7672    3.0795    8.0944 O   0  0  0  0  0  0  0  0  0  0  0  0
    8.1447    3.2341    8.4028 C   0  0  0  0  0  0  0  0  0  0  0  0
    9.2723    3.7784    7.1128 Cl  0  0  0  0  0  0  0  0  0  0  0  0
    5.1744    5.2616    7.7358 C   0  0  0  0  0  0  0  0  0  0  0  0
    4.6555    3.8856    7.8240 C   0  0  0  0  0  0  0  0  0  0  0  0
    3.3597    3.5641    7.6665 C   0  0  0  0  0  0  0  0  0  0  0  0
    2.6949    5.2261    7.3610 S   0  0  0  0  0  0  0  0  0  0  0  0
    2.1883    5.3740    6.0213 O   0  0  0  0  0  0  0  0  0  0  0  0
    1.8418    5.6605    8.4372 O   0  0  0  0  0  0  0  0  0  0  0  0
    4.2941    6.2079    7.4820 C   0  0  0  0  0  0  0  0  0  0  0  0
    8.2776    6.4451    9.0893 C   0  0  0  0  0  0  0  0  0  0  0  0
   10.5728    8.6992   10.1843 H   0  0  0  0  0  0  0  0  0  0  0  0
   10.7557    6.9560   10.3933 H   0  0  0  0  0  0  0  0  0  0  0  0
    9.4332    7.7985   11.1920 H   0  0  0  0  0  0  0  0  0  0  0  0
    9.8961    9.1771    7.9619 H   0  0  0  0  0  0  0  0  0  0  0  0
    8.4416    8.7652    6.0247 H   0  0  0  0  0  0  0  0  0  0  0  0
    6.8675    6.8558    6.0365 H   0  0  0  0  0  0  0  0  0  0  0  0
    8.0596    2.1486    8.3497 H   0  0  0  0  0  0  0  0  0  0  0  0
    8.5807    3.5335    9.3560 H   0  0  0  0  0  0  0  0  0  0  0  0
    4.3745    7.2658    7.3732 H   0  0  0  0  0  0  0  0  0  0  0  0
    8.2047    5.8099    9.9600 H   0  0  0  0  0  0  0  0  0  0  0  0
  1  2  1  0  0  0  0
  1 20  1  0  0  0  0
  1 21  1  0  0  0  0
  1 22  1  0  0  0  0
  2  3  1  0  0  0  0
  2 19  1  0  0  0  0
  3  4  1  0  0  0  0
  3 23  1  0  0  0  0
  4  5  1  0  0  0  0
  4 24  1  0  0  0  0
  5  6  1  0  0  0  0
  5 25  1  0  0  0  0
  6  7  1  0  0  0  0
  6 19  1  0  0  0  0
  7  8  1  0  0  0  0
  7 12  1  0  0  0  0
  8  9  1  0  0  0  0
  8 10  1  0  0  0  0
 10 11  1  0  0  0  0
 10 26  1  0  0  0  0
 10 27  1  0  0  0  0
 12 13  1  0  0  0  0
 12 18  1  0  0  0  0
 13 14  1  0  0  0  0
 14 15  1  0  0  0  0
 15 16  1  0  0  0  0
 15 17  1  0  0  0  0
 15 18  1  0  0  0  0
 18 28  1  0  0  0  0
 19 29  1  0  0  0  0
M  END
>  <name>


>  <Energy>
156.177

> <total energy / Eh>
    -55.712140781430

> <gradient norm / Eh/a0>
      0.000210552937

$$$$
