
 OpenBabel06082022513D

 34 35  0  0  0  0  0  0  0  0999 V2000
    8.8495    7.0552    4.0675 O   0  0  0  0  0  0  0  0  0  0  0  0
    8.8680    8.2679    4.2885 C   0  0  0  0  0  0  0  0  0  0  0  0
   10.1985    9.0103    4.3490 C   0  0  0  0  0  0  0  0  0  0  0  0
   11.1713    8.4081    5.7067 Cl  0  0  0  0  0  0  0  0  0  0  0  0
    7.6836    8.9812    4.4753 N   0  0  0  0  0  0  0  0  0  0  0  0
    6.4479    8.2357    4.7717 C   0  0  0  0  0  0  0  0  0  0  0  0
    5.6665    8.8671    5.9580 C   0  0  0  0  0  0  0  0  0  0  0  0
    6.5944    9.4836    6.9408 N   0  0  0  0  0  0  0  0  0  0  0  0
    6.9616    8.7144    8.4056 S   0  0  0  0  0  0  0  0  0  0  0  0
    5.7369    8.6271    9.1709 O   0  0  0  0  0  0  0  0  0  0  0  0
    8.1119    9.3824    8.9727 O   0  0  0  0  0  0  0  0  0  0  0  0
    7.4610    7.0750    7.9269 C   0  0  0  0  0  0  0  0  0  0  0  0
    8.8311    6.8321    7.7552 C   0  0  0  0  0  0  0  0  0  0  0  0
    9.2660    5.6492    7.1527 C   0  0  0  0  0  0  0  0  0  0  0  0
    8.3388    4.7054    6.7253 C   0  0  0  0  0  0  0  0  0  0  0  0
    6.9876    4.8925    7.0037 C   0  0  0  0  0  0  0  0  0  0  0  0
    6.5453    6.0525    7.6521 C   0  0  0  0  0  0  0  0  0  0  0  0
    4.8643    6.0744    8.0460 Cl  0  0  0  0  0  0  0  0  0  0  0  0
    7.5249   10.5018    6.3749 C   0  0  0  0  0  0  0  0  0  0  0  0
    7.5957   10.3921    4.8425 C   0  0  0  0  0  0  0  0  0  0  0  0
   10.1149   10.0821    4.4916 H   0  0  0  0  0  0  0  0  0  0  0  0
   10.7503    8.8301    3.4226 H   0  0  0  0  0  0  0  0  0  0  0  0
    6.6728    7.1863    4.9787 H   0  0  0  0  0  0  0  0  0  0  0  0
    5.8223    8.2593    3.8721 H   0  0  0  0  0  0  0  0  0  0  0  0
    4.9845    8.1490    6.4075 H   0  0  0  0  0  0  0  0  0  0  0  0
    5.0146    9.6651    5.5818 H   0  0  0  0  0  0  0  0  0  0  0  0
    9.5725    7.5708    8.0545 H   0  0  0  0  0  0  0  0  0  0  0  0
   10.3265    5.4860    6.9722 H   0  0  0  0  0  0  0  0  0  0  0  0
    8.6667    3.8219    6.1834 H   0  0  0  0  0  0  0  0  0  0  0  0
    6.2739    4.1312    6.6955 H   0  0  0  0  0  0  0  0  0  0  0  0
    8.5336   10.3771    6.7755 H   0  0  0  0  0  0  0  0  0  0  0  0
    7.1636   11.4979    6.6514 H   0  0  0  0  0  0  0  0  0  0  0  0
    6.6815   10.7880    4.3817 H   0  0  0  0  0  0  0  0  0  0  0  0
    8.4105   10.9877    4.4299 H   0  0  0  0  0  0  0  0  0  0  0  0
  1  2  2  0  0  0  0
  2  3  1  0  0  0  0
  2  5  1  0  0  0  0
  3  4  1  0  0  0  0
  3 21  1  0  0  0  0
  3 22  1  0  0  0  0
  5  6  1  0  0  0  0
  5 20  1  0  0  0  0
  6  7  1  0  0  0  0
  6 23  1  0  0  0  0
  6 24  1  0  0  0  0
  7  8  1  0  0  0  0
  7 25  1  0  0  0  0
  7 26  1  0  0  0  0
  8  9  1  0  0  0  0
  8 19  1  0  0  0  0
  9 10  2  0  0  0  0
  9 11  2  0  0  0  0
  9 12  1  0  0  0  0
 12 13  1  0  0  0  0
 12 17  2  0  0  0  0
 13 14  2  0  0  0  0
 13 27  1  0  0  0  0
 14 15  1  0  0  0  0
 14 28  1  0  0  0  0
 15 16  2  0  0  0  0
 15 29  1  0  0  0  0
 16 17  1  0  0  0  0
 16 30  1  0  0  0  0
 17 18  1  0  0  0  0
 19 20  1  0  0  0  0
 19 31  1  0  0  0  0
 19 32  1  0  0  0  0
 20 33  1  0  0  0  0
 20 34  1  0  0  0  0
M  END
>  <name>


>  <Energy>
41.9079

$$$$
