
  xtb     06082023243D
xtb: 6.2.3 (830e466)
 36 37  0     0  0            999 V2000
    3.3929    9.3215    4.7541 O   0  0  0  0  0  0  0  0  0  0  0  0
    3.7852   10.2332    5.4524 C   0  0  0  0  0  0  0  0  0  0  0  0
    4.5260   11.4137    4.8413 C   0  0  0  0  0  0  0  0  0  0  0  0
    6.2620   11.2809    5.2282 Cl  0  0  0  0  0  0  0  0  0  0  0  0
    3.5886   10.2648    6.7895 N   0  0  0  0  0  0  0  0  0  0  0  0
    4.0624   11.3198    7.6701 C   0  0  0  0  0  0  0  0  0  0  0  0
    3.8325   10.9223    9.1326 C   0  0  0  0  0  0  0  0  0  0  0  0
    4.3076    9.5949    9.4204 N   0  0  0  0  0  0  0  0  0  0  0  0
    5.7861    9.4291   10.1582 S   0  0  0  0  0  0  0  0  0  0  0  0
    5.8837   10.4704   11.1344 O   0  0  0  0  0  0  0  0  0  0  0  0
    5.9043    8.0611   10.5493 O   0  0  0  0  0  0  0  0  0  0  0  0
    7.0089    9.7549    8.8738 C   0  0  0  0  0  0  0  0  0  0  0  0
    7.4673    8.7144    8.0856 C   0  0  0  0  0  0  0  0  0  0  0  0
    8.3696    8.9801    7.0701 C   0  0  0  0  0  0  0  0  0  0  0  0
    8.8016   10.2863    6.8794 C   0  0  0  0  0  0  0  0  0  0  0  0
    9.7373   10.5730    5.8100 N   0  3  0  0  0  0  0  0  0  0  0  0
   10.0981    9.6462    5.1219 O   0  0  0  0  0  0  0  0  0  0  0  0
   10.0950   11.7206    5.6759 O   0  5  0  0  0  0  0  0  0  0  0  0
    8.3624   11.3277    7.6890 C   0  0  0  0  0  0  0  0  0  0  0  0
    7.4517   11.0538    8.6923 C   0  0  0  0  0  0  0  0  0  0  0  0
    3.9263    8.5528    8.4827 C   0  0  0  0  0  0  0  0  0  0  0  0
    2.9790    9.1145    7.4280 C   0  0  0  0  0  0  0  0  0  0  0  0
    4.1759   12.3770    5.2082 H   0  0  0  0  0  0  0  0  0  0  0  0
    4.4349   11.3565    3.7569 H   0  0  0  0  0  0  0  0  0  0  0  0
    3.5225   12.2532    7.4680 H   0  0  0  0  0  0  0  0  0  0  0  0
    5.1302   11.4907    7.5005 H   0  0  0  0  0  0  0  0  0  0  0  0
    2.7667   10.9793    9.3766 H   0  0  0  0  0  0  0  0  0  0  0  0
    4.3672   11.5966    9.8016 H   0  0  0  0  0  0  0  0  0  0  0  0
    7.1362    7.7096    8.2945 H   0  0  0  0  0  0  0  0  0  0  0  0
    8.7455    8.1988    6.4269 H   0  0  0  0  0  0  0  0  0  0  0  0
    8.7355   12.3255    7.5157 H   0  0  0  0  0  0  0  0  0  0  0  0
    7.0936   11.8249    9.3557 H   0  0  0  0  0  0  0  0  0  0  0  0
    3.4499    7.7368    9.0334 H   0  0  0  0  0  0  0  0  0  0  0  0
    4.8204    8.1569    7.9903 H   0  0  0  0  0  0  0  0  0  0  0  0
    2.7941    8.3726    6.6491 H   0  0  0  0  0  0  0  0  0  0  0  0
    2.0243    9.3986    7.8788 H   0  0  0  0  0  0  0  0  0  0  0  0
  1  2  1  0  0  0  0
  2  3  1  0  0  0  0
  2  5  1  0  0  0  0
  3  4  1  0  0  0  0
  3 23  1  0  0  0  0
  3 24  1  0  0  0  0
  5  6  1  0  0  0  0
  5 22  1  0  0  0  0
  6  7  1  0  0  0  0
  6 25  1  0  0  0  0
  6 26  1  0  0  0  0
  7  8  1  0  0  0  0
  7 27  1  0  0  0  0
  7 28  1  0  0  0  0
  8  9  1  0  0  0  0
  8 21  1  0  0  0  0
  9 10  1  0  0  0  0
  9 11  1  0  0  0  0
  9 12  1  0  0  0  0
 12 13  1  0  0  0  0
 12 20  1  0  0  0  0
 13 14  1  0  0  0  0
 13 29  1  0  0  0  0
 14 15  1  0  0  0  0
 14 30  1  0  0  0  0
 15 16  1  0  0  0  0
 15 19  1  0  0  0  0
 16 17  1  0  0  0  0
 16 18  1  0  0  0  0
 19 20  1  0  0  0  0
 19 31  1  0  0  0  0
 20 32  1  0  0  0  0
 21 22  1  0  0  0  0
 21 33  1  0  0  0  0
 21 34  1  0  0  0  0
 22 35  1  0  0  0  0
 22 36  1  0  0  0  0
M  END
>  <name>


>  <Energy>
115.316

> <total energy / Eh>
    -69.657019144827

> <gradient norm / Eh/a0>
      0.000425648116

$$$$
