
 OpenBabel06082022513D

 34 35  0  0  0  0  0  0  0  0999 V2000
   11.3524    7.3206    7.5418 O   0  0  0  0  0  0  0  0  0  0  0  0
   10.8176    8.4156    7.7354 C   0  0  0  0  0  0  0  0  0  0  0  0
   11.4871    9.4297    8.6439 C   0  0  0  0  0  0  0  0  0  0  0  0
   10.5805    9.5799   10.1615 Cl  0  0  0  0  0  0  0  0  0  0  0  0
    9.6202    8.7452    7.1148 N   0  0  0  0  0  0  0  0  0  0  0  0
    8.8981   10.0162    7.2085 C   0  0  0  0  0  0  0  0  0  0  0  0
    7.4693    9.7985    7.7329 C   0  0  0  0  0  0  0  0  0  0  0  0
    6.7924    8.6235    7.1025 N   0  0  0  0  0  0  0  0  0  0  0  0
    5.8434    7.6427    8.1099 S   0  0  0  0  0  0  0  0  0  0  0  0
    5.2193    6.6154    7.3005 O   0  0  0  0  0  0  0  0  0  0  0  0
    5.0590    8.5100    8.9585 O   0  0  0  0  0  0  0  0  0  0  0  0
    7.0566    6.8456    9.1378 C   0  0  0  0  0  0  0  0  0  0  0  0
    7.3612    7.3804   10.3946 C   0  0  0  0  0  0  0  0  0  0  0  0
    8.4143    6.8388   11.1321 C   0  0  0  0  0  0  0  0  0  0  0  0
    9.1401    5.7683   10.6142 C   0  0  0  0  0  0  0  0  0  0  0  0
   10.1862    5.3050   11.3132 F   0  0  0  0  0  0  0  0  0  0  0  0
    8.7897    5.1960    9.3916 C   0  0  0  0  0  0  0  0  0  0  0  0
    9.6873    3.8772    8.7467 Cl  0  0  0  0  0  0  0  0  0  0  0  0
    7.7235    5.7143    8.6591 C   0  0  0  0  0  0  0  0  0  0  0  0
    7.5131    8.0032    5.9589 C   0  0  0  0  0  0  0  0  0  0  0  0
    9.0022    7.7490    6.2400 C   0  0  0  0  0  0  0  0  0  0  0  0
   11.5721   10.4041    8.1561 H   0  0  0  0  0  0  0  0  0  0  0  0
   12.4948    9.0813    8.8886 H   0  0  0  0  0  0  0  0  0  0  0  0
    8.8693   10.4391    6.1973 H   0  0  0  0  0  0  0  0  0  0  0  0
    9.4184   10.7416    7.8358 H   0  0  0  0  0  0  0  0  0  0  0  0
    6.8662   10.6924    7.5437 H   0  0  0  0  0  0  0  0  0  0  0  0
    7.5232    9.6704    8.8169 H   0  0  0  0  0  0  0  0  0  0  0  0
    6.8127    8.2343   10.7888 H   0  0  0  0  0  0  0  0  0  0  0  0
    8.6957    7.2637   12.0909 H   0  0  0  0  0  0  0  0  0  0  0  0
    7.4507    5.2745    7.7032 H   0  0  0  0  0  0  0  0  0  0  0  0
    7.4199    8.6976    5.1141 H   0  0  0  0  0  0  0  0  0  0  0  0
    7.0331    7.0775    5.6271 H   0  0  0  0  0  0  0  0  0  0  0  0
    9.1464    6.7549    6.6707 H   0  0  0  0  0  0  0  0  0  0  0  0
    9.5573    7.7512    5.2940 H   0  0  0  0  0  0  0  0  0  0  0  0
  1  2  2  0  0  0  0
  2  3  1  0  0  0  0
  2  5  1  0  0  0  0
  3  4  1  0  0  0  0
  3 22  1  0  0  0  0
  3 23  1  0  0  0  0
  5  6  1  0  0  0  0
  5 21  1  0  0  0  0
  6  7  1  0  0  0  0
  6 24  1  0  0  0  0
  6 25  1  0  0  0  0
  7  8  1  0  0  0  0
  7 26  1  0  0  0  0
  7 27  1  0  0  0  0
  8  9  1  0  0  0  0
  8 20  1  0  0  0  0
  9 10  2  0  0  0  0
  9 11  2  0  0  0  0
  9 12  1  0  0  0  0
 12 13  1  0  0  0  0
 12 19  2  0  0  0  0
 13 14  2  0  0  0  0
 13 28  1  0  0  0  0
 14 15  1  0  0  0  0
 14 29  1  0  0  0  0
 15 16  1  0  0  0  0
 15 17  2  0  0  0  0
 17 18  1  0  0  0  0
 17 19  1  0  0  0  0
 19 30  1  0  0  0  0
 20 21  1  0  0  0  0
 20 31  1  0  0  0  0
 20 32  1  0  0  0  0
 21 33  1  0  0  0  0
 21 34  1  0  0  0  0
M  END
>  <name>


>  <Energy>
39.1334

$$$$
