
  xtb     06082023063D
xtb: 6.2.3 (830e466)
 31 32  0     0  0            999 V2000
    3.3053    7.0204    2.8737 O   0  0  0  0  0  0  0  0  0  0  0  0
    3.5992    5.9204    2.4425 C   0  0  0  0  0  0  0  0  0  0  0  0
    4.5747    5.8009    1.2762 C   0  0  0  0  0  0  0  0  0  0  0  0
    3.7731    5.1221   -0.1673 Cl  0  0  0  0  0  0  0  0  0  0  0  0
    3.1042    4.7819    2.9598 N   0  0  0  0  0  0  0  0  0  0  0  0
    3.5071    3.4311    2.6477 C   0  0  0  0  0  0  0  0  0  0  0  0
    4.3952    2.8825    3.7931 C   0  0  0  0  0  0  0  0  0  0  0  0
    4.1051    3.5098    5.0720 N   0  0  0  0  0  0  0  0  0  0  0  0
    5.0066    4.6180    5.3913 C   0  0  0  0  0  0  0  0  0  0  0  0
    4.6253    5.3173    6.6505 C   0  0  0  0  0  0  0  0  0  0  0  0
    4.0989    6.5611    6.8477 C   0  0  0  0  0  0  0  0  0  0  0  0
    3.9467    6.7084    8.2480 C   0  0  0  0  0  0  0  0  0  0  0  0
    4.3908    5.5447    8.7933 C   0  0  0  0  0  0  0  0  0  0  0  0
    4.8050    4.6981    7.8362 O   0  0  0  0  0  0  0  0  0  0  0  0
    2.6945    3.8181    5.1694 C   0  0  0  0  0  0  0  0  0  0  0  0
    2.2398    4.8594    4.1258 C   0  0  0  0  0  0  0  0  0  0  0  0
    5.4307    5.1694    1.5147 H   0  0  0  0  0  0  0  0  0  0  0  0
    4.9100    6.8050    1.0174 H   0  0  0  0  0  0  0  0  0  0  0  0
    4.0260    3.3800    1.6945 H   0  0  0  0  0  0  0  0  0  0  0  0
    2.5947    2.8315    2.5632 H   0  0  0  0  0  0  0  0  0  0  0  0
    5.4512    3.0315    3.5626 H   0  0  0  0  0  0  0  0  0  0  0  0
    4.2211    1.8054    3.8931 H   0  0  0  0  0  0  0  0  0  0  0  0
    5.0553    5.3791    4.5985 H   0  0  0  0  0  0  0  0  0  0  0  0
    6.0028    4.1788    5.5158 H   0  0  0  0  0  0  0  0  0  0  0  0
    3.8590    7.2810    6.0916 H   0  0  0  0  0  0  0  0  0  0  0  0
    3.5627    7.5617    8.7680 H   0  0  0  0  0  0  0  0  0  0  0  0
    4.4629    5.2099    9.8089 H   0  0  0  0  0  0  0  0  0  0  0  0
    2.4769    4.1832    6.1735 H   0  0  0  0  0  0  0  0  0  0  0  0
    2.1569    2.8764    5.0298 H   0  0  0  0  0  0  0  0  0  0  0  0
    1.2016    4.6774    3.8266 H   0  0  0  0  0  0  0  0  0  0  0  0
    2.3159    5.8735    4.5206 H   0  0  0  0  0  0  0  0  0  0  0  0
  1  2  1  0  0  0  0
  2  3  1  0  0  0  0
  2  5  1  0  0  0  0
  3  4  1  0  0  0  0
  3 17  1  0  0  0  0
  3 18  1  0  0  0  0
  5  6  1  0  0  0  0
  5 16  1  0  0  0  0
  6  7  1  0  0  0  0
  6 19  1  0  0  0  0
  6 20  1  0  0  0  0
  7  8  1  0  0  0  0
  7 21  1  0  0  0  0
  7 22  1  0  0  0  0
  8  9  1  0  0  0  0
  8 15  1  0  0  0  0
  9 10  1  0  0  0  0
  9 23  1  0  0  0  0
  9 24  1  0  0  0  0
 10 11  1  0  0  0  0
 10 14  1  0  0  0  0
 11 12  1  0  0  0  0
 11 25  1  0  0  0  0
 12 13  1  0  0  0  0
 12 26  1  0  0  0  0
 13 14  1  0  0  0  0
 13 27  1  0  0  0  0
 15 16  1  0  0  0  0
 15 28  1  0  0  0  0
 15 29  1  0  0  0  0
 16 30  1  0  0  0  0
 16 31  1  0  0  0  0
M  END
>  <name>


>  <Energy>
92.3036

> <total energy / Eh>
    -49.745936064072

> <gradient norm / Eh/a0>
      0.000189571837

$$$$
