
  xtb     06082023033D
xtb: 6.2.3 (830e466)
 34 35  0     0  0            999 V2000
    4.0410    9.6805    2.8574 O   0  0  0  0  0  0  0  0  0  0  0  0
    4.5031    9.4843    3.9654 C   0  0  0  0  0  0  0  0  0  0  0  0
    4.2971   10.5062    5.0781 C   0  0  0  0  0  0  0  0  0  0  0  0
    5.8261   11.3550    5.4306 Cl  0  0  0  0  0  0  0  0  0  0  0  0
    5.2034    8.3799    4.2803 N   0  0  0  0  0  0  0  0  0  0  0  0
    5.6997    8.0508    5.6033 C   0  0  0  0  0  0  0  0  0  0  0  0
    6.7456    6.9393    5.4791 C   0  0  0  0  0  0  0  0  0  0  0  0
    6.2347    5.7212    4.8786 N   0  0  0  0  0  0  0  0  0  0  0  0
    5.9293    4.6314    5.7955 C   0  0  0  0  0  0  0  0  0  0  0  0
    4.7619    4.8807    6.7213 C   0  0  0  0  0  0  0  0  0  0  0  0
    4.9402    5.5305    7.9378 C   0  0  0  0  0  0  0  0  0  0  0  0
    3.8592    5.8169    8.7528 C   0  0  0  0  0  0  0  0  0  0  0  0
    2.5799    5.4585    8.3622 C   0  0  0  0  0  0  0  0  0  0  0  0
    2.3910    4.7972    7.1612 C   0  0  0  0  0  0  0  0  0  0  0  0
    3.4746    4.5073    6.3499 C   0  0  0  0  0  0  0  0  0  0  0  0
    5.1788    5.9806    3.9112 C   0  0  0  0  0  0  0  0  0  0  0  0
    5.3704    7.3470    3.2716 C   0  0  0  0  0  0  0  0  0  0  0  0
    3.9492   10.0494    6.0037 H   0  0  0  0  0  0  0  0  0  0  0  0
    3.5885   11.2563    4.7284 H   0  0  0  0  0  0  0  0  0  0  0  0
    4.8749    7.7104    6.2450 H   0  0  0  0  0  0  0  0  0  0  0  0
    6.1642    8.9264    6.0609 H   0  0  0  0  0  0  0  0  0  0  0  0
    7.1548    6.7175    6.4644 H   0  0  0  0  0  0  0  0  0  0  0  0
    7.5696    7.3084    4.8563 H   0  0  0  0  0  0  0  0  0  0  0  0
    6.8342    4.4369    6.3771 H   0  0  0  0  0  0  0  0  0  0  0  0
    5.7261    3.7517    5.1775 H   0  0  0  0  0  0  0  0  0  0  0  0
    5.9350    5.8055    8.2590 H   0  0  0  0  0  0  0  0  0  0  0  0
    4.0164    6.3181    9.6967 H   0  0  0  0  0  0  0  0  0  0  0  0
    1.7358    5.6836    8.9970 H   0  0  0  0  0  0  0  0  0  0  0  0
    1.3977    4.5020    6.8560 H   0  0  0  0  0  0  0  0  0  0  0  0
    3.3209    3.9688    5.4250 H   0  0  0  0  0  0  0  0  0  0  0  0
    4.1785    5.9555    4.3726 H   0  0  0  0  0  0  0  0  0  0  0  0
    5.2198    5.2015    3.1428 H   0  0  0  0  0  0  0  0  0  0  0  0
    6.3637    7.4175    2.8171 H   0  0  0  0  0  0  0  0  0  0  0  0
    4.6224    7.5231    2.4959 H   0  0  0  0  0  0  0  0  0  0  0  0
  1  2  1  0  0  0  0
  2  3  1  0  0  0  0
  2  5  1  0  0  0  0
  3  4  1  0  0  0  0
  3 18  1  0  0  0  0
  3 19  1  0  0  0  0
  5  6  1  0  0  0  0
  5 17  1  0  0  0  0
  6  7  1  0  0  0  0
  6 20  1  0  0  0  0
  6 21  1  0  0  0  0
  7  8  1  0  0  0  0
  7 22  1  0  0  0  0
  7 23  1  0  0  0  0
  8  9  1  0  0  0  0
  8 16  1  0  0  0  0
  9 10  1  0  0  0  0
  9 24  1  0  0  0  0
  9 25  1  0  0  0  0
 10 11  1  0  0  0  0
 10 15  1  0  0  0  0
 11 12  1  0  0  0  0
 11 26  1  0  0  0  0
 12 13  1  0  0  0  0
 12 27  1  0  0  0  0
 13 14  1  0  0  0  0
 13 28  1  0  0  0  0
 14 15  1  0  0  0  0
 14 29  1  0  0  0  0
 15 30  1  0  0  0  0
 16 17  1  0  0  0  0
 16 31  1  0  0  0  0
 16 32  1  0  0  0  0
 17 33  1  0  0  0  0
 17 34  1  0  0  0  0
M  END
>  <name>


>  <Energy>
97.4374

> <total energy / Eh>
    -50.983638331938

> <gradient norm / Eh/a0>
      0.000370015276

$$$$
