
 OpenBabel06082022513D

 38 40  0  0  0  0  0  0  0  0999 V2000
    8.7602    7.9053   10.9183 O   0  0  0  0  0  0  0  0  0  0  0  0
    9.6282    8.3527   10.1443 C   0  0  0  0  0  0  0  0  0  0  0  0
   11.1077    8.3539   10.5168 C   0  0  0  0  0  0  0  0  0  0  0  0
   11.8676    9.9045   10.1193 Cl  0  0  0  0  0  0  0  0  0  0  0  0
    9.2439    8.7894    8.8873 N   0  0  0  0  0  0  0  0  0  0  0  0
    8.5504   10.0849    8.7975 C   0  0  0  0  0  0  0  0  0  0  0  0
    7.6998   10.2302    7.5043 C   0  0  0  0  0  0  0  0  0  0  0  0
    7.7688    9.0711    6.6216 N   0  0  0  0  0  0  0  0  0  0  0  0
    6.7803    7.9933    6.6447 C   0  0  0  0  0  0  0  0  0  0  0  0
    6.2745    7.4019    7.9639 C   0  0  0  0  0  0  0  0  0  0  0  0
    5.9948    6.0219    8.0197 C   0  0  0  0  0  0  0  0  0  0  0  0
    5.7514    5.3598    9.2301 C   0  0  0  0  0  0  0  0  0  0  0  0
    5.8304    6.0893   10.4072 C   0  0  0  0  0  0  0  0  0  0  0  0
    5.9207    7.5274   10.3420 C   0  0  0  0  0  0  0  0  0  0  0  0
    6.0376    8.1608    9.1197 C   0  0  0  0  0  0  0  0  0  0  0  0
    5.9783    8.2184   11.4122 O   0  0  0  0  0  0  0  0  0  0  0  0
    6.3576    7.5935   12.4531 C   0  0  0  0  0  0  0  0  0  0  0  0
    6.2946    6.1671   12.5166 C   0  0  0  0  0  0  0  0  0  0  0  0
    5.8800    5.4825   11.5200 O   0  0  0  0  0  0  0  0  0  0  0  0
    9.1720    8.7016    6.3852 C   0  0  0  0  0  0  0  0  0  0  0  0
    9.9788    8.4056    7.6700 C   0  0  0  0  0  0  0  0  0  0  0  0
   11.6382    7.5335   10.0299 H   0  0  0  0  0  0  0  0  0  0  0  0
   11.1846    8.2475   11.6029 H   0  0  0  0  0  0  0  0  0  0  0  0
    9.3172   10.8680    8.8205 H   0  0  0  0  0  0  0  0  0  0  0  0
    7.9410   10.2233    9.6970 H   0  0  0  0  0  0  0  0  0  0  0  0
    8.0963   11.0955    6.9581 H   0  0  0  0  0  0  0  0  0  0  0  0
    6.6674   10.5338    7.7165 H   0  0  0  0  0  0  0  0  0  0  0  0
    7.2290    7.1486    6.1014 H   0  0  0  0  0  0  0  0  0  0  0  0
    5.9120    8.2835    6.0451 H   0  0  0  0  0  0  0  0  0  0  0  0
    6.0015    5.4298    7.0959 H   0  0  0  0  0  0  0  0  0  0  0  0
    5.5715    4.2907    9.2579 H   0  0  0  0  0  0  0  0  0  0  0  0
    6.0443    9.2368    9.1325 H   0  0  0  0  0  0  0  0  0  0  0  0
    6.7358    8.1604   13.3095 H   0  0  0  0  0  0  0  0  0  0  0  0
    6.6172    5.6504   13.4191 H   0  0  0  0  0  0  0  0  0  0  0  0
    9.6501    9.5598    5.8878 H   0  0  0  0  0  0  0  0  0  0  0  0
    9.2760    7.8870    5.6594 H   0  0  0  0  0  0  0  0  0  0  0  0
   10.2022    7.3356    7.7397 H   0  0  0  0  0  0  0  0  0  0  0  0
   10.9303    8.9458    7.6363 H   0  0  0  0  0  0  0  0  0  0  0  0
  1  2  2  0  0  0  0
  2  3  1  0  0  0  0
  2  5  1  0  0  0  0
  3  4  1  0  0  0  0
  3 22  1  0  0  0  0
  3 23  1  0  0  0  0
  5  6  1  0  0  0  0
  5 21  1  0  0  0  0
  6  7  1  0  0  0  0
  6 24  1  0  0  0  0
  6 25  1  0  0  0  0
  7  8  1  0  0  0  0
  7 26  1  0  0  0  0
  7 27  1  0  0  0  0
  8  9  1  0  0  0  0
  8 20  1  0  0  0  0
  9 10  1  0  0  0  0
  9 28  1  0  0  0  0
  9 29  1  0  0  0  0
 10 11  1  0  0  0  0
 10 15  2  0  0  0  0
 11 12  2  0  0  0  0
 11 30  1  0  0  0  0
 12 13  1  0  0  0  0
 12 31  1  0  0  0  0
 13 14  2  0  0  0  0
 13 19  1  0  0  0  0
 14 15  1  0  0  0  0
 14 16  1  0  0  0  0
 15 32  1  0  0  0  0
 16 17  2  0  0  0  0
 17 18  1  0  0  0  0
 17 33  1  0  0  0  0
 18 19  2  0  0  0  0
 18 34  1  0  0  0  0
 20 21  1  0  0  0  0
 20 35  1  0  0  0  0
 20 36  1  0  0  0  0
 21 37  1  0  0  0  0
 21 38  1  0  0  0  0
M  END
>  <name>


>  <Energy>
354.41

$$$$
