
 OpenBabel06082022513D

 36 38  0  0  0  0  0  0  0  0999 V2000
    8.9295    7.0832   11.9446 O   0  0  0  0  0  0  0  0  0  0  0  0
    8.5364    7.4398   10.8297 C   0  0  0  0  0  0  0  0  0  0  0  0
    8.6524    8.8990   10.4305 C   0  0  0  0  0  0  0  0  0  0  0  0
    7.0999    9.7173   10.6825 Cl  0  0  0  0  0  0  0  0  0  0  0  0
    8.0253    6.5284    9.9071 N   0  0  0  0  0  0  0  0  0  0  0  0
    7.3118    6.8796    8.6812 C   0  0  0  0  0  0  0  0  0  0  0  0
    5.8232    6.5486    8.8123 C   0  0  0  0  0  0  0  0  0  0  0  0
    5.5300    5.1190    9.3261 C   0  0  0  0  0  0  0  0  0  0  0  0
    5.4895    3.9922    8.2581 C   0  0  2  0  0  0  0  0  0  0  0  0
    6.5928    4.0225    7.2950 N   0  0  0  0  0  0  0  0  0  0  0  0
    6.1620    4.5464    6.0655 C   0  0  0  0  0  0  0  0  0  0  0  0
    7.0165    4.8995    5.0302 C   0  0  0  0  0  0  0  0  0  0  0  0
    6.4756    5.3621    3.8252 C   0  0  0  0  0  0  0  0  0  0  0  0
    5.0878    5.4334    3.6468 C   0  0  0  0  0  0  0  0  0  0  0  0
    4.2265    5.0387    4.6699 C   0  0  0  0  0  0  0  0  0  0  0  0
    4.7797    4.5954    5.8608 C   0  0  0  0  0  0  0  0  0  0  0  0
    3.9166    4.0756    7.3058 S   0  0  0  0  0  0  0  0  0  0  0  0
    6.4438    4.7693   10.5223 C   0  0  0  0  0  0  0  0  0  0  0  0
    7.9068    5.1282   10.2990 C   0  0  0  0  0  0  0  0  0  0  0  0
    8.9804    9.0120    9.3944 H   0  0  0  0  0  0  0  0  0  0  0  0
    9.3988    9.3836   11.0676 H   0  0  0  0  0  0  0  0  0  0  0  0
    7.7833    6.3310    7.8630 H   0  0  0  0  0  0  0  0  0  0  0  0
    7.4216    7.9363    8.4343 H   0  0  0  0  0  0  0  0  0  0  0  0
    5.3122    6.7509    7.8658 H   0  0  0  0  0  0  0  0  0  0  0  0
    5.3907    7.2496    9.5383 H   0  0  0  0  0  0  0  0  0  0  0  0
    4.5187    5.1520    9.7602 H   0  0  0  0  0  0  0  0  0  0  0  0
    5.4955    3.0166    8.7564 H   0  0  0  0  0  0  0  0  0  0  0  0
    7.5147    4.2848    7.6036 H   0  0  0  0  0  0  0  0  0  0  0  0
    8.0926    4.8277    5.1482 H   0  0  0  0  0  0  0  0  0  0  0  0
    7.1379    5.6597    3.0150 H   0  0  0  0  0  0  0  0  0  0  0  0
    4.6795    5.7898    2.7035 H   0  0  0  0  0  0  0  0  0  0  0  0
    3.1504    5.0817    4.5352 H   0  0  0  0  0  0  0  0  0  0  0  0
    6.3509    3.7101   10.7872 H   0  0  0  0  0  0  0  0  0  0  0  0
    6.0847    5.3356   11.3932 H   0  0  0  0  0  0  0  0  0  0  0  0
    8.4754    4.9220   11.2116 H   0  0  0  0  0  0  0  0  0  0  0  0
    8.3519    4.5154    9.5099 H   0  0  0  0  0  0  0  0  0  0  0  0
  1  2  2  0  0  0  0
  2  3  1  0  0  0  0
  2  5  1  0  0  0  0
  3  4  1  0  0  0  0
  3 20  1  0  0  0  0
  3 21  1  0  0  0  0
  5  6  1  0  0  0  0
  5 19  1  0  0  0  0
  6  7  1  0  0  0  0
  6 22  1  0  0  0  0
  6 23  1  0  0  0  0
  7  8  1  0  0  0  0
  7 24  1  0  0  0  0
  7 25  1  0  0  0  0
  8  9  1  0  0  0  0
  8 18  1  0  0  0  0
  8 26  1  0  0  0  0
  9 10  1  0  0  0  0
  9 17  1  0  0  0  0
  9 27  1  1  0  0  0
 10 11  1  0  0  0  0
 10 28  1  0  0  0  0
 11 12  1  0  0  0  0
 11 16  2  0  0  0  0
 12 13  2  0  0  0  0
 12 29  1  0  0  0  0
 13 14  1  0  0  0  0
 13 30  1  0  0  0  0
 14 15  2  0  0  0  0
 14 31  1  0  0  0  0
 15 16  1  0  0  0  0
 15 32  1  0  0  0  0
 16 17  1  0  0  0  0
 18 19  1  0  0  0  0
 18 33  1  0  0  0  0
 18 34  1  0  0  0  0
 19 35  1  0  0  0  0
 19 36  1  0  0  0  0
M  END
>  <name>


>  <Energy>
33.6481

$$$$
