
 OpenBabel06082022513D

 36 38  0  0  0  0  0  0  0  0999 V2000
   10.2442    6.4120    4.9467 O   0  0  0  0  0  0  0  0  0  0  0  0
    9.3695    7.2160    4.6196 C   0  0  0  0  0  0  0  0  0  0  0  0
    9.7333    8.5928    4.0723 C   0  0  0  0  0  0  0  0  0  0  0  0
   10.9133    9.3947    5.1283 Cl  0  0  0  0  0  0  0  0  0  0  0  0
    8.0237    6.8756    4.6825 N   0  0  0  0  0  0  0  0  0  0  0  0
    6.9353    7.8134    4.9287 C   0  0  0  0  0  0  0  0  0  0  0  0
    5.9306    7.2616    5.9698 C   0  0  0  0  0  0  0  0  0  0  0  0
    6.4559    6.2502    6.9126 N   0  0  0  0  0  0  0  0  0  0  0  0
    7.5077    6.6579    7.8713 C   0  0  0  0  0  0  0  0  0  0  0  0
    7.5039    8.1190    8.2485 C   0  0  0  0  0  0  0  0  0  0  0  0
    6.3502    8.6881    8.9623 C   0  0  0  0  0  0  0  0  0  0  0  0
    6.1210   10.0210    8.9494 C   0  0  0  0  0  0  0  0  0  0  0  0
    7.0533   10.8453    8.2173 C   0  0  0  0  0  0  0  0  0  0  0  0
    8.1934   10.3396    7.7443 C   0  0  0  0  0  0  0  0  0  0  0  0
    8.4858    8.9410    7.8075 C   0  0  0  0  0  0  0  0  0  0  0  0
    8.6239   11.1716    6.8049 O   0  0  0  0  0  0  0  0  0  0  0  0
    7.7491   12.1315    6.8261 C   0  0  0  0  0  0  0  0  0  0  0  0
    6.6886   12.0664    7.7027 O   0  0  0  0  0  0  0  0  0  0  0  0
    6.9475    5.0934    6.1137 C   0  0  0  0  0  0  0  0  0  0  0  0
    7.6418    5.4601    4.7751 C   0  0  0  0  0  0  0  0  0  0  0  0
    8.8782    9.2612    3.9668 H   0  0  0  0  0  0  0  0  0  0  0  0
   10.1874    8.4613    3.0863 H   0  0  0  0  0  0  0  0  0  0  0  0
    6.4248    7.9942    3.9766 H   0  0  0  0  0  0  0  0  0  0  0  0
    7.3353    8.7668    5.2789 H   0  0  0  0  0  0  0  0  0  0  0  0
    5.1047    6.7893    5.4189 H   0  0  0  0  0  0  0  0  0  0  0  0
    5.4415    8.0905    6.4913 H   0  0  0  0  0  0  0  0  0  0  0  0
    8.5034    6.4030    7.4846 H   0  0  0  0  0  0  0  0  0  0  0  0
    7.3881    6.0558    8.7824 H   0  0  0  0  0  0  0  0  0  0  0  0
    5.6813    8.0011    9.4819 H   0  0  0  0  0  0  0  0  0  0  0  0
    5.2630   10.4615    9.4482 H   0  0  0  0  0  0  0  0  0  0  0  0
    9.3511    8.5718    7.2745 H   0  0  0  0  0  0  0  0  0  0  0  0
    7.6904   13.0203    6.1850 H   0  0  0  0  0  0  0  0  0  0  0  0
    6.0860    4.4551    5.8791 H   0  0  0  0  0  0  0  0  0  0  0  0
    7.6097    4.4559    6.7130 H   0  0  0  0  0  0  0  0  0  0  0  0
    8.5009    4.8058    4.5987 H   0  0  0  0  0  0  0  0  0  0  0  0
    6.9365    5.2920    3.9508 H   0  0  0  0  0  0  0  0  0  0  0  0
  1  2  2  0  0  0  0
  2  3  1  0  0  0  0
  2  5  1  0  0  0  0
  3  4  1  0  0  0  0
  3 21  1  0  0  0  0
  3 22  1  0  0  0  0
  5  6  1  0  0  0  0
  5 20  1  0  0  0  0
  6  7  1  0  0  0  0
  6 23  1  0  0  0  0
  6 24  1  0  0  0  0
  7  8  1  0  0  0  0
  7 25  1  0  0  0  0
  7 26  1  0  0  0  0
  8  9  1  0  0  0  0
  8 19  1  0  0  0  0
  9 10  1  0  0  0  0
  9 27  1  0  0  0  0
  9 28  1  0  0  0  0
 10 11  1  0  0  0  0
 10 15  2  0  0  0  0
 11 12  2  0  0  0  0
 11 29  1  0  0  0  0
 12 13  1  0  0  0  0
 12 30  1  0  0  0  0
 13 14  3  0  0  0  0
 13 18  1  0  0  0  0
 14 15  1  0  0  0  0
 14 16  1  0  0  0  0
 15 31  1  0  0  0  0
 16 17  2  0  0  0  0
 17 18  1  0  0  0  0
 17 32  1  0  0  0  0
 19 20  1  0  0  0  0
 19 33  1  0  0  0  0
 19 34  1  0  0  0  0
 20 35  1  0  0  0  0
 20 36  1  0  0  0  0
M  END
>  <name>


>  <Energy>
133.103

$$$$
