
  xtb     06082023033D
xtb: 6.2.3 (830e466)
 36 38  0     0  0            999 V2000
    9.3404    7.0443   11.4619 O   0  0  0  0  0  0  0  0  0  0  0  0
    8.6287    7.4277   10.5517 C   0  0  0  0  0  0  0  0  0  0  0  0
    8.5354    8.9198   10.2472 C   0  0  0  0  0  0  0  0  0  0  0  0
    6.8979    9.5404   10.5857 Cl  0  0  0  0  0  0  0  0  0  0  0  0
    7.9375    6.5846    9.7653 N   0  0  0  0  0  0  0  0  0  0  0  0
    7.0377    6.9123    8.6835 C   0  0  0  0  0  0  0  0  0  0  0  0
    5.6029    6.5291    9.0533 C   0  0  0  0  0  0  0  0  0  0  0  0
    5.4627    5.0704    9.5002 C   0  0  0  0  0  0  0  0  0  0  0  0
    5.4144    4.0570    8.3387 C   0  0  0  0  0  0  0  0  0  0  0  0
    6.5396    4.1096    7.4446 N   0  0  0  0  0  0  0  0  0  0  0  0
    6.2383    4.5643    6.1663 C   0  0  0  0  0  0  0  0  0  0  0  0
    7.1632    4.7977    5.1636 C   0  0  0  0  0  0  0  0  0  0  0  0
    6.7259    5.2924    3.9433 C   0  0  0  0  0  0  0  0  0  0  0  0
    5.3846    5.5526    3.7239 C   0  0  0  0  0  0  0  0  0  0  0  0
    4.4482    5.3160    4.7214 C   0  0  0  0  0  0  0  0  0  0  0  0
    4.8850    4.8220    5.9315 C   0  0  0  0  0  0  0  0  0  0  0  0
    3.8954    4.3948    7.3215 S   0  0  0  0  0  0  0  0  0  0  0  0
    6.5501    4.7299   10.5275 C   0  0  0  0  0  0  0  0  0  0  0  0
    7.9408    5.1690   10.0739 C   0  0  0  0  0  0  0  0  0  0  0  0
    8.7762    9.1485    9.2093 H   0  0  0  0  0  0  0  0  0  0  0  0
    9.2208    9.4404   10.9156 H   0  0  0  0  0  0  0  0  0  0  0  0
    7.3588    6.3568    7.7973 H   0  0  0  0  0  0  0  0  0  0  0  0
    7.0707    7.9748    8.4547 H   0  0  0  0  0  0  0  0  0  0  0  0
    4.9498    6.7229    8.2016 H   0  0  0  0  0  0  0  0  0  0  0  0
    5.2796    7.1714    9.8747 H   0  0  0  0  0  0  0  0  0  0  0  0
    4.4892    4.9669    9.9944 H   0  0  0  0  0  0  0  0  0  0  0  0
    5.2904    3.0546    8.7685 H   0  0  0  0  0  0  0  0  0  0  0  0
    7.1820    3.3327    7.4948 H   0  0  0  0  0  0  0  0  0  0  0  0
    8.2091    4.5916    5.3357 H   0  0  0  0  0  0  0  0  0  0  0  0
    7.4446    5.4736    3.1588 H   0  0  0  0  0  0  0  0  0  0  0  0
    5.0577    5.9359    2.7699 H   0  0  0  0  0  0  0  0  0  0  0  0
    3.3987    5.5002    4.5566 H   0  0  0  0  0  0  0  0  0  0  0  0
    6.5540    3.6583   10.7345 H   0  0  0  0  0  0  0  0  0  0  0  0
    6.3167    5.2505   11.4584 H   0  0  0  0  0  0  0  0  0  0  0  0
    8.6688    5.0034   10.8700 H   0  0  0  0  0  0  0  0  0  0  0  0
    8.2494    4.6204    9.1801 H   0  0  0  0  0  0  0  0  0  0  0  0
  1  2  1  0  0  0  0
  2  3  1  0  0  0  0
  2  5  1  0  0  0  0
  3  4  1  0  0  0  0
  3 20  1  0  0  0  0
  3 21  1  0  0  0  0
  5  6  1  0  0  0  0
  5 19  1  0  0  0  0
  6  7  1  0  0  0  0
  6 22  1  0  0  0  0
  6 23  1  0  0  0  0
  7  8  1  0  0  0  0
  7 24  1  0  0  0  0
  7 25  1  0  0  0  0
  8  9  1  0  0  0  0
  8 18  1  0  0  0  0
  8 26  1  0  0  0  0
  9 10  1  0  0  0  0
  9 17  1  0  0  0  0
  9 27  1  0  0  0  0
 10 11  1  0  0  0  0
 10 28  1  0  0  0  0
 11 12  1  0  0  0  0
 11 16  1  0  0  0  0
 12 13  1  0  0  0  0
 12 29  1  0  0  0  0
 13 14  1  0  0  0  0
 13 30  1  0  0  0  0
 14 15  1  0  0  0  0
 14 31  1  0  0  0  0
 15 16  1  0  0  0  0
 15 32  1  0  0  0  0
 16 17  1  0  0  0  0
 18 19  1  0  0  0  0
 18 33  1  0  0  0  0
 18 34  1  0  0  0  0
 19 35  1  0  0  0  0
 19 36  1  0  0  0  0
M  END
>  <name>


>  <Energy>
33.6481

> <total energy / Eh>
    -56.400292032356

> <gradient norm / Eh/a0>
      0.000391124481

$$$$
