
  xtb     06082022563D
xtb: 6.2.3 (830e466)
 38 39  0     0  0            999 V2000
   12.3745    7.9147    8.8982 C   0  0  0  0  0  0  0  0  0  0  0  0
   11.3729    8.6037    8.1813 O   0  0  0  0  0  0  0  0  0  0  0  0
   10.2085    7.9654    7.9354 C   0  0  0  0  0  0  0  0  0  0  0  0
    9.1739    8.7560    7.4233 C   0  0  0  0  0  0  0  0  0  0  0  0
    7.9240    8.2155    7.2117 C   0  0  0  0  0  0  0  0  0  0  0  0
    7.7050    6.8790    7.4930 C   0  0  0  0  0  0  0  0  0  0  0  0
    6.0597    6.2015    7.3635 S   0  0  0  0  0  0  0  0  0  0  0  0
    6.1505    4.7945    7.1046 O   0  0  0  0  0  0  0  0  0  0  0  0
    5.2778    7.0320    6.4981 O   0  0  0  0  0  0  0  0  0  0  0  0
    5.3675    6.3379    8.8818 N   0  0  0  0  0  0  0  0  0  0  0  0
    4.9440    7.6450    9.3298 C   0  0  0  0  0  0  0  0  0  0  0  0
    5.5515    7.9791   10.7033 C   0  0  0  0  0  0  0  0  0  0  0  0
    6.8963    7.4618   10.7756 N   0  0  0  0  0  0  0  0  0  0  0  0
    8.0472    8.1581   10.7659 C   0  0  0  0  0  0  0  0  0  0  0  0
    9.1368    7.6130   10.7801 O   0  0  0  0  0  0  0  0  0  0  0  0
    7.9733    9.6783   10.8364 C   0  0  0  0  0  0  0  0  0  0  0  0
    7.1443   10.4196    9.4447 Cl  0  0  0  0  0  0  0  0  0  0  0  0
    6.9637    6.0080   10.7439 C   0  0  0  0  0  0  0  0  0  0  0  0
    5.8015    5.4345    9.9105 C   0  0  0  0  0  0  0  0  0  0  0  0
    8.7360    6.0685    7.9233 C   0  0  0  0  0  0  0  0  0  0  0  0
    9.9899    6.6043    8.1492 C   0  0  0  0  0  0  0  0  0  0  0  0
   13.1480    8.6527    9.1044 H   0  0  0  0  0  0  0  0  0  0  0  0
   12.8033    7.0994    8.3076 H   0  0  0  0  0  0  0  0  0  0  0  0
   11.9772    7.5234    9.8388 H   0  0  0  0  0  0  0  0  0  0  0  0
    9.3743    9.7971    7.2250 H   0  0  0  0  0  0  0  0  0  0  0  0
    7.1115    8.8102    6.8251 H   0  0  0  0  0  0  0  0  0  0  0  0
    3.8493    7.6743    9.3969 H   0  0  0  0  0  0  0  0  0  0  0  0
    5.2555    8.3703    8.5771 H   0  0  0  0  0  0  0  0  0  0  0  0
    4.9665    7.4951   11.4933 H   0  0  0  0  0  0  0  0  0  0  0  0
    5.5274    9.0533   10.8655 H   0  0  0  0  0  0  0  0  0  0  0  0
    8.9964   10.0545   10.8371 H   0  0  0  0  0  0  0  0  0  0  0  0
    7.4581   10.0033   11.7416 H   0  0  0  0  0  0  0  0  0  0  0  0
    6.9155    5.6210   11.7691 H   0  0  0  0  0  0  0  0  0  0  0  0
    7.9344    5.7408   10.3237 H   0  0  0  0  0  0  0  0  0  0  0  0
    6.1022    4.5153    9.4084 H   0  0  0  0  0  0  0  0  0  0  0  0
    4.9448    5.2098   10.5556 H   0  0  0  0  0  0  0  0  0  0  0  0
    8.5447    5.0168    8.0707 H   0  0  0  0  0  0  0  0  0  0  0  0
   10.7802    5.9652    8.5059 H   0  0  0  0  0  0  0  0  0  0  0  0
  1  2  1  0  0  0  0
  1 22  1  0  0  0  0
  1 23  1  0  0  0  0
  1 24  1  0  0  0  0
  2  3  1  0  0  0  0
  3  4  1  0  0  0  0
  3 21  1  0  0  0  0
  4  5  1  0  0  0  0
  4 25  1  0  0  0  0
  5  6  1  0  0  0  0
  5 26  1  0  0  0  0
  6  7  1  0  0  0  0
  6 20  1  0  0  0  0
  7  8  1  0  0  0  0
  7  9  1  0  0  0  0
  7 10  1  0  0  0  0
 10 11  1  0  0  0  0
 10 19  1  0  0  0  0
 11 12  1  0  0  0  0
 11 27  1  0  0  0  0
 11 28  1  0  0  0  0
 12 13  1  0  0  0  0
 12 29  1  0  0  0  0
 12 30  1  0  0  0  0
 13 14  1  0  0  0  0
 13 18  1  0  0  0  0
 14 15  1  0  0  0  0
 14 16  1  0  0  0  0
 16 17  1  0  0  0  0
 16 31  1  0  0  0  0
 16 32  1  0  0  0  0
 18 19  1  0  0  0  0
 18 33  1  0  0  0  0
 18 34  1  0  0  0  0
 19 35  1  0  0  0  0
 19 36  1  0  0  0  0
 20 21  1  0  0  0  0
 20 37  1  0  0  0  0
 21 38  1  0  0  0  0
M  END
>  <name>


>  <Energy>
75.4334

> <total energy / Eh>
    -66.441194693020

> <gradient norm / Eh/a0>
      0.000262579048

$$$$
